%description:

In this test, packets are produced periodically by an active packet source
(ActivePacketSource). The packets are consumed by a passive packet sink
(PassivePacketSink).

%file: test.ned

import inet.queueing.sink.PassivePacketSink;
import inet.queueing.source.ActivePacketSource;

network TestProducerConsumer
{
    submodules:
        producer: ActivePacketSource {
            @display("p=100,100");
        }
        consumer: PassivePacketSink {
            @display("p=200,100");
        }
    connections:
        producer.out --> consumer.in;
}

%inifile: omnetpp.ini

[General]
network = TestProducerConsumer
sim-time-limit = 10s
cmdenv-event-banners = false
cmdenv-log-prefix = "At %ts %N: "
*.producer.packetLength = 1B
*.producer.productionInterval = 1s

%# remove formatting
%subst: /\x1B\[[0-9;]*m//

%subst: /\nRunning simulation\.\.\.\n//

%contains-regex: stdout
At 0s producer: Producing packet, [^\n]*?producer-0[^\n]*?
At 0s consumer: Consuming packet, [^\n]*?producer-0[^\n]*?
At 1s producer: Producing packet, [^\n]*?producer-1[^\n]*?
At 1s consumer: Consuming packet, [^\n]*?producer-1[^\n]*?
At 2s producer: Producing packet, [^\n]*?producer-2[^\n]*?
At 2s consumer: Consuming packet, [^\n]*?producer-2[^\n]*?
At 3s producer: Producing packet, [^\n]*?producer-3[^\n]*?
At 3s consumer: Consuming packet, [^\n]*?producer-3[^\n]*?
At 4s producer: Producing packet, [^\n]*?producer-4[^\n]*?
At 4s consumer: Consuming packet, [^\n]*?producer-4[^\n]*?
At 5s producer: Producing packet, [^\n]*?producer-5[^\n]*?
At 5s consumer: Consuming packet, [^\n]*?producer-5[^\n]*?
At 6s producer: Producing packet, [^\n]*?producer-6[^\n]*?
At 6s consumer: Consuming packet, [^\n]*?producer-6[^\n]*?
At 7s producer: Producing packet, [^\n]*?producer-7[^\n]*?
At 7s consumer: Consuming packet, [^\n]*?producer-7[^\n]*?
At 8s producer: Producing packet, [^\n]*?producer-8[^\n]*?
At 8s consumer: Consuming packet, [^\n]*?producer-8[^\n]*?
At 9s producer: Producing packet, [^\n]*?producer-9[^\n]*?
At 9s consumer: Consuming packet, [^\n]*?producer-9[^\n]*?
At 10s producer: Producing packet, [^\n]*?producer-10[^\n]*?
At 10s consumer: Consuming packet, [^\n]*?producer-10[^\n]*?

<!> Simulation time limit reached
