%description:

In this test, packets are periodically (randomly) collected by two active sinks
(ActivePacketSinks). One sink collects packets with a slower rate while the other
sink uses a faster rate. The two packet sinks are combined using a markov
chain with random transition matrix and random wait intervals. The packets are
provided by a single passive source (PassivePacketSource).

%file: test.ned

import inet.queueing.sink.ActivePacketSink;
import inet.queueing.classifier.MarkovClassifier;
import inet.queueing.source.PassivePacketSource;

network TestBurst
{
    submodules:
        provider: PassivePacketSource {
            @display("p=100,100");
        }
        classifier: MarkovClassifier {
            @display("p=200,100");
        }
        collector1: ActivePacketSink {
            @display("p=300,100");
        }
        collector2: ActivePacketSink {
            @display("p=300,200");
        }
    connections allowunconnected:
        provider.out --> classifier.in;
        classifier.out++ --> collector1.in;
        classifier.out++ --> collector2.in;
}

%inifile: omnetpp.ini

[General]
network = TestBurst
sim-time-limit = 100s
cmdenv-event-banners = false
cmdenv-log-prefix = "At %ts %N: "
*.provider.packetLength = 1B
*.collector1.collectionInterval = uniform(0s, 20s)
*.collector2.collectionInterval = uniform(0s, 2s)
*.classifier.transitionProbabilities = "0 1 1 0"
*.classifier.waitIntervals = "40 4"

%# remove formatting
%subst: /\x1B\[[0-9;]*m//

%subst: /\nRunning simulation\.\.\.\n//

%contains-regex: stdout
At [^\n]*?: Providing packet, .*?provider-0.*?
At [^\n]*?: Collecting packet, .*?provider-0.*?
At [^\n]*?: Providing packet, .*?provider-1.*?
At [^\n]*?: Collecting packet, .*?provider-1.*?
At [^\n]*?: Providing packet, .*?provider-2.*?
At [^\n]*?: Collecting packet, .*?provider-2.*?
At [^\n]*?: Providing packet, .*?provider-3.*?
At [^\n]*?: Collecting packet, .*?provider-3.*?
At [^\n]*?: Providing packet, .*?provider-4.*?
At [^\n]*?: Collecting packet, .*?provider-4.*?
At [^\n]*?: Providing packet, .*?provider-5.*?
At [^\n]*?: Collecting packet, .*?provider-5.*?
At [^\n]*?: Providing packet, .*?provider-6.*?
At [^\n]*?: Collecting packet, .*?provider-6.*?
At [^\n]*?: Providing packet, .*?provider-7.*?
At [^\n]*?: Collecting packet, .*?provider-7.*?
At [^\n]*?: Providing packet, .*?provider-8.*?
At [^\n]*?: Collecting packet, .*?provider-8.*?
At [^\n]*?: Providing packet, .*?provider-9.*?
At [^\n]*?: Collecting packet, .*?provider-9.*?
At [^\n]*?: Providing packet, .*?provider-10.*?
At [^\n]*?: Collecting packet, .*?provider-10.*?
At [^\n]*?: Providing packet, .*?provider-11.*?
At [^\n]*?: Collecting packet, .*?provider-11.*?
At [^\n]*?: Providing packet, .*?provider-12.*?
At [^\n]*?: Collecting packet, .*?provider-12.*?
At [^\n]*?: Providing packet, .*?provider-13.*?
At [^\n]*?: Collecting packet, .*?provider-13.*?
At [^\n]*?: Providing packet, .*?provider-14.*?
At [^\n]*?: Collecting packet, .*?provider-14.*?
At [^\n]*?: Providing packet, .*?provider-15.*?
At [^\n]*?: Collecting packet, .*?provider-15.*?
