%description:

In this test, packets are produced periodically by an active packet source
(ActivePacketSource). The produced packets are delayed (PacketDelayer) for a random
amount of time. Finally, the packets are sent into a passive packet sink (PassivePacketSink).

%file: test.ned

import inet.queueing.sink.PassivePacketSink;
import inet.queueing.common.PacketDelayer;
import inet.queueing.source.ActivePacketSource;

network TestDelayer
{
    submodules:
        producer: ActivePacketSource {
            @display("p=100,100");
        }
        delayer: PacketDelayer {
            @display("p=200,100");
        }
        consumer: PassivePacketSink {
            @display("p=300,100");
        }
    connections allowunconnected:
        producer.out --> delayer.in;
        delayer.out --> consumer.in;
}

%inifile: omnetpp.ini

[General]
network = TestDelayer
sim-time-limit = 10s
cmdenv-event-banners = false
cmdenv-log-prefix = "At %ts %N: "
*.producer.packetLength = 1B
*.producer.productionInterval = 1s
*.delayer.delay = uniform(0s, 2s)

%# remove formatting
%subst: /\x1B\[[0-9;]*m//

%subst: /\nRunning simulation\.\.\.\n//

%contains-regex: stdout
At 0s producer: Producing packet, [^\n]*?producer-0[^\n]*?
At 0s delayer: Delaying packet, [^\n]*?producer-0[^\n]*?
At 1s producer: Producing packet, [^\n]*?producer-1[^\n]*?
At 1s delayer: Delaying packet, [^\n]*?producer-1[^\n]*?
At [^\n]*?s consumer: Consuming packet, [^\n]*?producer-0[^\n]*?
At 2s producer: Producing packet, [^\n]*?producer-2[^\n]*?
At 2s delayer: Delaying packet, [^\n]*?producer-2[^\n]*?
At [^\n]*?s consumer: Consuming packet, [^\n]*?producer-1[^\n]*?
At 3s producer: Producing packet, [^\n]*?producer-3[^\n]*?
At 3s delayer: Delaying packet, [^\n]*?producer-3[^\n]*?
At [^\n]*?s consumer: Consuming packet, [^\n]*?producer-2[^\n]*?
At 4s producer: Producing packet, [^\n]*?producer-4[^\n]*?
At 4s delayer: Delaying packet, [^\n]*?producer-4[^\n]*?
At [^\n]*?s consumer: Consuming packet, [^\n]*?producer-3[^\n]*?
At 5s producer: Producing packet, [^\n]*?producer-5[^\n]*?
At 5s delayer: Delaying packet, [^\n]*?producer-5[^\n]*?
At [^\n]*?s consumer: Consuming packet, [^\n]*?producer-4[^\n]*?
At 6s producer: Producing packet, [^\n]*?producer-6[^\n]*?
At 6s delayer: Delaying packet, [^\n]*?producer-6[^\n]*?
At [^\n]*?s consumer: Consuming packet, [^\n]*?producer-5[^\n]*?
At 7s producer: Producing packet, [^\n]*?producer-7[^\n]*?
At 7s delayer: Delaying packet, [^\n]*?producer-7[^\n]*?
At [^\n]*?s consumer: Consuming packet, [^\n]*?producer-6[^\n]*?
At 8s producer: Producing packet, [^\n]*?producer-8[^\n]*?
At 8s delayer: Delaying packet, [^\n]*?producer-8[^\n]*?
At [^\n]*?s consumer: Consuming packet, [^\n]*?producer-7[^\n]*?
At [^\n]*?s consumer: Consuming packet, [^\n]*?producer-8[^\n]*?
At 9s producer: Producing packet, [^\n]*?producer-9[^\n]*?
At 9s delayer: Delaying packet, [^\n]*?producer-9[^\n]*?
At 10s producer: Producing packet, [^\n]*?producer-10[^\n]*?
At 10s delayer: Delaying packet, [^\n]*?producer-10[^\n]*?
