%description:

In this test, packets are collected periodically (randomly) by several active
packet sinks (ActivePacketSinks). The packets are provided by a single passive
packet source upon request (PassivePacketSource). The single source is connected to
the multiple sinks using an intermediary component (PacketDemultiplexer) which
simply forwards packets.

%file: test.ned

import inet.queueing.sink.ActivePacketSink;
import inet.queueing.common.PacketDemultiplexer;
import inet.queueing.source.PassivePacketSource;

network TestServer
{
    parameters:
        int numCollectors;
    submodules:
        provider: PassivePacketSource {
            @display("p=100,100");
        }
        demultiplexer: PacketDemultiplexer {
            @display("p=200,100");
        }
        collector[numCollectors]: ActivePacketSink {
            @display("p=300,100");
        }
    connections allowunconnected:
    	provider.out --> demultiplexer.in;
        for i=0..numCollectors-1 {
	        demultiplexer.out++ --> collector[i].in;
      	}
}

%inifile: omnetpp.ini

[General]
network = TestServer
sim-time-limit = 10s
cmdenv-event-banners = false
cmdenv-log-prefix = "At %ts %N: "
*.provider.packetLength = 1B
*.numCollectors = 3
*.collector[*].collectionInterval = uniform(0s, 2s)

%# remove formatting
%subst: /\x1B\[[0-9;]*m//

%subst: /\nRunning simulation\.\.\.\n//

%contains-regex: stdout
At 0s provider: Providing packet, [^\n]*?provider-0[^\n]*?
At 0s demultiplexer: Forwarding packet, [^\n]*?provider-0[^\n]*?
At 0s collector\[0\]: Collecting packet, [^\n]*?provider-0[^\n]*?
At 0s provider: Providing packet, [^\n]*?provider-1[^\n]*?
At 0s demultiplexer: Forwarding packet, [^\n]*?provider-1[^\n]*?
At 0s collector\[1\]: Collecting packet, [^\n]*?provider-1[^\n]*?
At 0s provider: Providing packet, [^\n]*?provider-2[^\n]*?
At 0s demultiplexer: Forwarding packet, [^\n]*?provider-2[^\n]*?
At 0s collector\[2\]: Collecting packet, [^\n]*?provider-2[^\n]*?
At [^\n]*?: Providing packet, [^\n]*?provider-3[^\n]*?
At [^\n]*?: Forwarding packet, [^\n]*?provider-3[^\n]*?
At [^\n]*?: Collecting packet, [^\n]*?provider-3[^\n]*?
At [^\n]*?: Providing packet, [^\n]*?provider-4[^\n]*?
At [^\n]*?: Forwarding packet, [^\n]*?provider-4[^\n]*?
At [^\n]*?: Collecting packet, [^\n]*?provider-4[^\n]*?
At [^\n]*?: Providing packet, [^\n]*?provider-5[^\n]*?
At [^\n]*?: Forwarding packet, [^\n]*?provider-5[^\n]*?
At [^\n]*?: Collecting packet, [^\n]*?provider-5[^\n]*?
At [^\n]*?: Providing packet, [^\n]*?provider-6[^\n]*?
At [^\n]*?: Forwarding packet, [^\n]*?provider-6[^\n]*?
At [^\n]*?: Collecting packet, [^\n]*?provider-6[^\n]*?
At [^\n]*?: Providing packet, [^\n]*?provider-7[^\n]*?
At [^\n]*?: Forwarding packet, [^\n]*?provider-7[^\n]*?
At [^\n]*?: Collecting packet, [^\n]*?provider-7[^\n]*?
At [^\n]*?: Providing packet, [^\n]*?provider-8[^\n]*?
At [^\n]*?: Forwarding packet, [^\n]*?provider-8[^\n]*?
At [^\n]*?: Collecting packet, [^\n]*?provider-8[^\n]*?
At [^\n]*?: Providing packet, [^\n]*?provider-9[^\n]*?
At [^\n]*?: Forwarding packet, [^\n]*?provider-9[^\n]*?
At [^\n]*?: Collecting packet, [^\n]*?provider-9[^\n]*?
At [^\n]*?: Providing packet, [^\n]*?provider-10[^\n]*?
At [^\n]*?: Forwarding packet, [^\n]*?provider-10[^\n]*?
At [^\n]*?: Collecting packet, [^\n]*?provider-10[^\n]*?
At [^\n]*?: Providing packet, [^\n]*?provider-11[^\n]*?
At [^\n]*?: Forwarding packet, [^\n]*?provider-11[^\n]*?
At [^\n]*?: Collecting packet, [^\n]*?provider-11[^\n]*?
At [^\n]*?: Providing packet, [^\n]*?provider-12[^\n]*?
At [^\n]*?: Forwarding packet, [^\n]*?provider-12[^\n]*?
At [^\n]*?: Collecting packet, [^\n]*?provider-12[^\n]*?
At [^\n]*?: Providing packet, [^\n]*?provider-13[^\n]*?
At [^\n]*?: Forwarding packet, [^\n]*?provider-13[^\n]*?
At [^\n]*?: Collecting packet, [^\n]*?provider-13[^\n]*?
At [^\n]*?: Providing packet, [^\n]*?provider-14[^\n]*?
At [^\n]*?: Forwarding packet, [^\n]*?provider-14[^\n]*?
At [^\n]*?: Collecting packet, [^\n]*?provider-14[^\n]*?
At [^\n]*?: Providing packet, [^\n]*?provider-15[^\n]*?
At [^\n]*?: Forwarding packet, [^\n]*?provider-15[^\n]*?
At [^\n]*?: Collecting packet, [^\n]*?provider-15[^\n]*?
At [^\n]*?: Providing packet, [^\n]*?provider-16[^\n]*?
At [^\n]*?: Forwarding packet, [^\n]*?provider-16[^\n]*?
At [^\n]*?: Collecting packet, [^\n]*?provider-16[^\n]*?
At [^\n]*?: Providing packet, [^\n]*?provider-17[^\n]*?
At [^\n]*?: Forwarding packet, [^\n]*?provider-17[^\n]*?
At [^\n]*?: Collecting packet, [^\n]*?provider-17[^\n]*?
At [^\n]*?: Providing packet, [^\n]*?provider-18[^\n]*?
At [^\n]*?: Forwarding packet, [^\n]*?provider-18[^\n]*?
At [^\n]*?: Collecting packet, [^\n]*?provider-18[^\n]*?
At [^\n]*?: Providing packet, [^\n]*?provider-19[^\n]*?
At [^\n]*?: Forwarding packet, [^\n]*?provider-19[^\n]*?
At [^\n]*?: Collecting packet, [^\n]*?provider-19[^\n]*?
At [^\n]*?: Providing packet, [^\n]*?provider-20[^\n]*?
At [^\n]*?: Forwarding packet, [^\n]*?provider-20[^\n]*?
At [^\n]*?: Collecting packet, [^\n]*?provider-20[^\n]*?
At [^\n]*?: Providing packet, [^\n]*?provider-21[^\n]*?
At [^\n]*?: Forwarding packet, [^\n]*?provider-21[^\n]*?
At [^\n]*?: Collecting packet, [^\n]*?provider-21[^\n]*?
At [^\n]*?: Providing packet, [^\n]*?provider-22[^\n]*?
At [^\n]*?: Forwarding packet, [^\n]*?provider-22[^\n]*?
At [^\n]*?: Collecting packet, [^\n]*?provider-22[^\n]*?
At [^\n]*?: Providing packet, [^\n]*?provider-23[^\n]*?
At [^\n]*?: Forwarding packet, [^\n]*?provider-23[^\n]*?
At [^\n]*?: Collecting packet, [^\n]*?provider-23[^\n]*?
At [^\n]*?: Providing packet, [^\n]*?provider-24[^\n]*?
At [^\n]*?: Forwarding packet, [^\n]*?provider-24[^\n]*?
At [^\n]*?: Collecting packet, [^\n]*?provider-24[^\n]*?
At [^\n]*?: Providing packet, [^\n]*?provider-25[^\n]*?
At [^\n]*?: Forwarding packet, [^\n]*?provider-25[^\n]*?
At [^\n]*?: Collecting packet, [^\n]*?provider-25[^\n]*?
At [^\n]*?: Providing packet, [^\n]*?provider-26[^\n]*?
At [^\n]*?: Forwarding packet, [^\n]*?provider-26[^\n]*?
At [^\n]*?: Collecting packet, [^\n]*?provider-26[^\n]*?
