%description:

TODO

%file: test.ned

import inet.queueing.shaper.LeakyBucket;
import inet.queueing.sink.PassivePacketSink;
import inet.queueing.source.ActivePacketSource;

network TestLeakyBucket
{
    submodules:
        producer: ActivePacketSource {
            @display("p=100,100");
        }
        bucket: LeakyBucket {
            @display("p=200,100");
        }
        consumer: PassivePacketSink {
            @display("p=300,100");
        }
    connections allowunconnected:
        producer.out --> bucket.in;
        bucket.out --> consumer.in;
}

%inifile: omnetpp.ini

[General]
network = TestLeakyBucket
sim-time-limit = 10s
cmdenv-event-banners = false
cmdenv-log-prefix = "At %ts %N: "
*.producer.packetLength = 1B
*.producer.productionInterval = uniform(0s, 2s)
*.bucket.server.processingTime = 1s

%# remove formatting
%subst: /\x1B\[[0-9;]*m//

%subst: /\nRunning simulation\.\.\.\n//

%contains-regex: stdout
At [^\n]*?: Producing packet, [^\n]*?producer-0[^\n]*?
At [^\n]*?: Pushing packet, [^\n]*?producer-0[^\n]*?
At [^\n]*?: Pulling packet, [^\n]*?producer-0[^\n]*?
At [^\n]*?: Processing packet started, [^\n]*?producer-0[^\n]*?
At [^\n]*?: Processing packet ended, [^\n]*?producer-0[^\n]*?
At [^\n]*?: Consuming packet, [^\n]*?producer-0[^\n]*?
At [^\n]*?: Producing packet, [^\n]*?producer-1[^\n]*?
At [^\n]*?: Pushing packet, [^\n]*?producer-1[^\n]*?
At [^\n]*?: Pulling packet, [^\n]*?producer-1[^\n]*?
At [^\n]*?: Processing packet started, [^\n]*?producer-1[^\n]*?
At [^\n]*?: Processing packet ended, [^\n]*?producer-1[^\n]*?
At [^\n]*?: Consuming packet, [^\n]*?producer-1[^\n]*?
At [^\n]*?: Producing packet, [^\n]*?producer-2[^\n]*?
At [^\n]*?: Pushing packet, [^\n]*?producer-2[^\n]*?
At [^\n]*?: Pulling packet, [^\n]*?producer-2[^\n]*?
At [^\n]*?: Processing packet started, [^\n]*?producer-2[^\n]*?
At [^\n]*?: Processing packet ended, [^\n]*?producer-2[^\n]*?
At [^\n]*?: Consuming packet, [^\n]*?producer-2[^\n]*?
At [^\n]*?: Producing packet, [^\n]*?producer-3[^\n]*?
At [^\n]*?: Pushing packet, [^\n]*?producer-3[^\n]*?
At [^\n]*?: Pulling packet, [^\n]*?producer-3[^\n]*?
At [^\n]*?: Processing packet started, [^\n]*?producer-3[^\n]*?
At [^\n]*?: Processing packet ended, [^\n]*?producer-3[^\n]*?
At [^\n]*?: Consuming packet, [^\n]*?producer-3[^\n]*?
At [^\n]*?: Producing packet, [^\n]*?producer-4[^\n]*?
At [^\n]*?: Pushing packet, [^\n]*?producer-4[^\n]*?
At [^\n]*?: Pulling packet, [^\n]*?producer-4[^\n]*?
At [^\n]*?: Processing packet started, [^\n]*?producer-4[^\n]*?
At [^\n]*?: Processing packet ended, [^\n]*?producer-4[^\n]*?
At [^\n]*?: Consuming packet, [^\n]*?producer-4[^\n]*?
At [^\n]*?: Producing packet, [^\n]*?producer-5[^\n]*?
At [^\n]*?: Pushing packet, [^\n]*?producer-5[^\n]*?
At [^\n]*?: Pulling packet, [^\n]*?producer-5[^\n]*?
At [^\n]*?: Processing packet started, [^\n]*?producer-5[^\n]*?
At [^\n]*?: Processing packet ended, [^\n]*?producer-5[^\n]*?
At [^\n]*?: Consuming packet, [^\n]*?producer-5[^\n]*?
At [^\n]*?: Producing packet, [^\n]*?producer-6[^\n]*?
At [^\n]*?: Pushing packet, [^\n]*?producer-6[^\n]*?
At [^\n]*?: Pulling packet, [^\n]*?producer-6[^\n]*?
At [^\n]*?: Processing packet started, [^\n]*?producer-6[^\n]*?

<!> Simulation time limit reached -- at t=10s
