%description:

In this test, packets are produced periodically by an active packet source
(ActivePacketSource). The packets are consumed by a passive packet sink
(PassivePacketSink). The packet rate is measured and if the rate of packets
is higher than a predefined threshold, then packets are dropped.

%file: test.ned

import inet.queueing.source.ActivePacketSource;
import inet.queueing.sink.PassivePacketSink;
import inet.queueing.filter.StatisticalRateLimiter;
import inet.queueing.meter.ExponentialRateMeter;

network TestMeter
{
    submodules:
        producer: ActivePacketSource {
            @display("p=100,100");
        }
        meter: ExponentialRateMeter {
            @display("p=200,100");
        }
        limiter: StatisticalRateLimiter {
            @display("p=300,100");
        }
        consumer: PassivePacketSink {
            @display("p=400,100");
        }
    connections allowunconnected:
        producer.out --> meter.in;
        meter.out --> limiter.in;
        limiter.out --> consumer.in;
}
%inifile: omnetpp.ini

[General]
network = TestMeter
sim-time-limit = 100s
cmdenv-event-banners = false
cmdenv-log-prefix = "At %ts %N: "
*.producer.packetLength = 1B
*.producer.productionInterval = 1s
*.meter.alpha = 0.9
*.limiter.maxPacketrate = 0.5

%# remove formatting
%subst: /\x1B\[[0-9;]*m//

%subst: /\nRunning simulation\.\.\.\n//

%contains-regex: stdout
At 0s producer: Producing packet, [^\n]*?producer-0[^\n]*?
At 0s meter: Metering packet, [^\n]*?producer-0[^\n]*?
At 0s limiter: Passing through packet, [^\n]*?producer-0[^\n]*?
At 0s consumer: Consuming packet, [^\n]*?producer-0[^\n]*?
At 1s producer: Producing packet, [^\n]*?producer-1[^\n]*?
At 1s meter: Metering packet, [^\n]*?producer-1[^\n]*?
At 1s limiter: Passing through packet, [^\n]*?producer-1[^\n]*?
At 1s consumer: Consuming packet, [^\n]*?producer-1[^\n]*?
At 2s producer: Producing packet, [^\n]*?producer-2[^\n]*?
At 2s meter: Metering packet, [^\n]*?producer-2[^\n]*?
At 2s limiter: Passing through packet, [^\n]*?producer-2[^\n]*?
At 2s consumer: Consuming packet, [^\n]*?producer-2[^\n]*?
At 3s producer: Producing packet, [^\n]*?producer-3[^\n]*?
At 3s meter: Metering packet, [^\n]*?producer-3[^\n]*?
At 3s limiter: Passing through packet, [^\n]*?producer-3[^\n]*?
At 3s consumer: Consuming packet, [^\n]*?producer-3[^\n]*?
At 4s producer: Producing packet, [^\n]*?producer-4[^\n]*?
At 4s meter: Metering packet, [^\n]*?producer-4[^\n]*?
At 4s limiter: Passing through packet, [^\n]*?producer-4[^\n]*?
At 4s consumer: Consuming packet, [^\n]*?producer-4[^\n]*?
At 5s producer: Producing packet, [^\n]*?producer-5[^\n]*?
At 5s meter: Metering packet, [^\n]*?producer-5[^\n]*?
At 5s limiter: Passing through packet, [^\n]*?producer-5[^\n]*?
At 5s consumer: Consuming packet, [^\n]*?producer-5[^\n]*?
At 6s producer: Producing packet, [^\n]*?producer-6[^\n]*?
At 6s meter: Metering packet, [^\n]*?producer-6[^\n]*?
At 6s limiter: Passing through packet, [^\n]*?producer-6[^\n]*?
At 6s consumer: Consuming packet, [^\n]*?producer-6[^\n]*?
At 7s producer: Producing packet, [^\n]*?producer-7[^\n]*?
At 7s meter: Metering packet, [^\n]*?producer-7[^\n]*?
At 7s limiter: Passing through packet, [^\n]*?producer-7[^\n]*?
At 7s consumer: Consuming packet, [^\n]*?producer-7[^\n]*?
At 8s producer: Producing packet, [^\n]*?producer-8[^\n]*?
At 8s meter: Metering packet, [^\n]*?producer-8[^\n]*?
At 8s limiter: Passing through packet, [^\n]*?producer-8[^\n]*?
At 8s consumer: Consuming packet, [^\n]*?producer-8[^\n]*?
At 9s producer: Producing packet, [^\n]*?producer-9[^\n]*?
At 9s meter: Metering packet, [^\n]*?producer-9[^\n]*?
At 9s limiter: Filtering out packet, [^\n]*?producer-9[^\n]*?
At 10s producer: Producing packet, [^\n]*?producer-10[^\n]*?
At 10s meter: Metering packet, [^\n]*?producer-10[^\n]*?
At 10s limiter: Passing through packet, [^\n]*?producer-10[^\n]*?
At 10s consumer: Consuming packet, [^\n]*?producer-10[^\n]*?
At 11s producer: Producing packet, [^\n]*?producer-11[^\n]*?
At 11s meter: Metering packet, [^\n]*?producer-11[^\n]*?
At 11s limiter: Passing through packet, [^\n]*?producer-11[^\n]*?
At 11s consumer: Consuming packet, [^\n]*?producer-11[^\n]*?
At 12s producer: Producing packet, [^\n]*?producer-12[^\n]*?
At 12s meter: Metering packet, [^\n]*?producer-12[^\n]*?
At 12s limiter: Filtering out packet, [^\n]*?producer-12[^\n]*?
At 13s producer: Producing packet, [^\n]*?producer-13[^\n]*?
At 13s meter: Metering packet, [^\n]*?producer-13[^\n]*?
At 13s limiter: Filtering out packet, [^\n]*?producer-13[^\n]*?
At 14s producer: Producing packet, [^\n]*?producer-14[^\n]*?
At 14s meter: Metering packet, [^\n]*?producer-14[^\n]*?
At 14s limiter: Filtering out packet, [^\n]*?producer-14[^\n]*?
At 15s producer: Producing packet, [^\n]*?producer-15[^\n]*?
At 15s meter: Metering packet, [^\n]*?producer-15[^\n]*?
At 15s limiter: Passing through packet, [^\n]*?producer-15[^\n]*?
At 15s consumer: Consuming packet, [^\n]*?producer-15[^\n]*?
At 16s producer: Producing packet, [^\n]*?producer-16[^\n]*?
At 16s meter: Metering packet, [^\n]*?producer-16[^\n]*?
At 16s limiter: Filtering out packet, [^\n]*?producer-16[^\n]*?
At 17s producer: Producing packet, [^\n]*?producer-17[^\n]*?
At 17s meter: Metering packet, [^\n]*?producer-17[^\n]*?
At 17s limiter: Passing through packet, [^\n]*?producer-17[^\n]*?
At 17s consumer: Consuming packet, [^\n]*?producer-17[^\n]*?
At 18s producer: Producing packet, [^\n]*?producer-18[^\n]*?
At 18s meter: Metering packet, [^\n]*?producer-18[^\n]*?
At 18s limiter: Filtering out packet, [^\n]*?producer-18[^\n]*?
At 19s producer: Producing packet, [^\n]*?producer-19[^\n]*?
At 19s meter: Metering packet, [^\n]*?producer-19[^\n]*?
At 19s limiter: Filtering out packet, [^\n]*?producer-19[^\n]*?
At 20s producer: Producing packet, [^\n]*?producer-20[^\n]*?
At 20s meter: Metering packet, [^\n]*?producer-20[^\n]*?
At 20s limiter: Filtering out packet, [^\n]*?producer-20[^\n]*?
At 21s producer: Producing packet, [^\n]*?producer-21[^\n]*?
At 21s meter: Metering packet, [^\n]*?producer-21[^\n]*?
At 21s limiter: Passing through packet, [^\n]*?producer-21[^\n]*?
At 21s consumer: Consuming packet, [^\n]*?producer-21[^\n]*?
At 22s producer: Producing packet, [^\n]*?producer-22[^\n]*?
At 22s meter: Metering packet, [^\n]*?producer-22[^\n]*?
At 22s limiter: Passing through packet, [^\n]*?producer-22[^\n]*?
At 22s consumer: Consuming packet, [^\n]*?producer-22[^\n]*?
At 23s producer: Producing packet, [^\n]*?producer-23[^\n]*?
At 23s meter: Metering packet, [^\n]*?producer-23[^\n]*?
At 23s limiter: Passing through packet, [^\n]*?producer-23[^\n]*?
At 23s consumer: Consuming packet, [^\n]*?producer-23[^\n]*?
At 24s producer: Producing packet, [^\n]*?producer-24[^\n]*?
At 24s meter: Metering packet, [^\n]*?producer-24[^\n]*?
At 24s limiter: Filtering out packet, [^\n]*?producer-24[^\n]*?
At 25s producer: Producing packet, [^\n]*?producer-25[^\n]*?
At 25s meter: Metering packet, [^\n]*?producer-25[^\n]*?
At 25s limiter: Passing through packet, [^\n]*?producer-25[^\n]*?
At 25s consumer: Consuming packet, [^\n]*?producer-25[^\n]*?
At 26s producer: Producing packet, [^\n]*?producer-26[^\n]*?
At 26s meter: Metering packet, [^\n]*?producer-26[^\n]*?
At 26s limiter: Filtering out packet, [^\n]*?producer-26[^\n]*?
At 27s producer: Producing packet, [^\n]*?producer-27[^\n]*?
At 27s meter: Metering packet, [^\n]*?producer-27[^\n]*?
At 27s limiter: Passing through packet, [^\n]*?producer-27[^\n]*?
At 27s consumer: Consuming packet, [^\n]*?producer-27[^\n]*?
At 28s producer: Producing packet, [^\n]*?producer-28[^\n]*?
At 28s meter: Metering packet, [^\n]*?producer-28[^\n]*?
At 28s limiter: Passing through packet, [^\n]*?producer-28[^\n]*?
At 28s consumer: Consuming packet, [^\n]*?producer-28[^\n]*?
At 29s producer: Producing packet, [^\n]*?producer-29[^\n]*?
At 29s meter: Metering packet, [^\n]*?producer-29[^\n]*?
At 29s limiter: Filtering out packet, [^\n]*?producer-29[^\n]*?
At 30s producer: Producing packet, [^\n]*?producer-30[^\n]*?
At 30s meter: Metering packet, [^\n]*?producer-30[^\n]*?
At 30s limiter: Filtering out packet, [^\n]*?producer-30[^\n]*?
At 31s producer: Producing packet, [^\n]*?producer-31[^\n]*?
At 31s meter: Metering packet, [^\n]*?producer-31[^\n]*?
At 31s limiter: Filtering out packet, [^\n]*?producer-31[^\n]*?
At 32s producer: Producing packet, [^\n]*?producer-32[^\n]*?
At 32s meter: Metering packet, [^\n]*?producer-32[^\n]*?
At 32s limiter: Passing through packet, [^\n]*?producer-32[^\n]*?
At 32s consumer: Consuming packet, [^\n]*?producer-32[^\n]*?
At 33s producer: Producing packet, [^\n]*?producer-33[^\n]*?
At 33s meter: Metering packet, [^\n]*?producer-33[^\n]*?
At 33s limiter: Filtering out packet, [^\n]*?producer-33[^\n]*?
At 34s producer: Producing packet, [^\n]*?producer-34[^\n]*?
At 34s meter: Metering packet, [^\n]*?producer-34[^\n]*?
At 34s limiter: Filtering out packet, [^\n]*?producer-34[^\n]*?
At 35s producer: Producing packet, [^\n]*?producer-35[^\n]*?
At 35s meter: Metering packet, [^\n]*?producer-35[^\n]*?
At 35s limiter: Passing through packet, [^\n]*?producer-35[^\n]*?
At 35s consumer: Consuming packet, [^\n]*?producer-35[^\n]*?
At 36s producer: Producing packet, [^\n]*?producer-36[^\n]*?
At 36s meter: Metering packet, [^\n]*?producer-36[^\n]*?
At 36s limiter: Passing through packet, [^\n]*?producer-36[^\n]*?
At 36s consumer: Consuming packet, [^\n]*?producer-36[^\n]*?
At 37s producer: Producing packet, [^\n]*?producer-37[^\n]*?
At 37s meter: Metering packet, [^\n]*?producer-37[^\n]*?
At 37s limiter: Passing through packet, [^\n]*?producer-37[^\n]*?
At 37s consumer: Consuming packet, [^\n]*?producer-37[^\n]*?
At 38s producer: Producing packet, [^\n]*?producer-38[^\n]*?
At 38s meter: Metering packet, [^\n]*?producer-38[^\n]*?
At 38s limiter: Filtering out packet, [^\n]*?producer-38[^\n]*?
At 39s producer: Producing packet, [^\n]*?producer-39[^\n]*?
At 39s meter: Metering packet, [^\n]*?producer-39[^\n]*?
At 39s limiter: Passing through packet, [^\n]*?producer-39[^\n]*?
At 39s consumer: Consuming packet, [^\n]*?producer-39[^\n]*?
At 40s producer: Producing packet, [^\n]*?producer-40[^\n]*?
At 40s meter: Metering packet, [^\n]*?producer-40[^\n]*?
At 40s limiter: Passing through packet, [^\n]*?producer-40[^\n]*?
At 40s consumer: Consuming packet, [^\n]*?producer-40[^\n]*?
At 41s producer: Producing packet, [^\n]*?producer-41[^\n]*?
At 41s meter: Metering packet, [^\n]*?producer-41[^\n]*?
At 41s limiter: Passing through packet, [^\n]*?producer-41[^\n]*?
At 41s consumer: Consuming packet, [^\n]*?producer-41[^\n]*?
At 42s producer: Producing packet, [^\n]*?producer-42[^\n]*?
At 42s meter: Metering packet, [^\n]*?producer-42[^\n]*?
At 42s limiter: Filtering out packet, [^\n]*?producer-42[^\n]*?
At 43s producer: Producing packet, [^\n]*?producer-43[^\n]*?
At 43s meter: Metering packet, [^\n]*?producer-43[^\n]*?
At 43s limiter: Passing through packet, [^\n]*?producer-43[^\n]*?
At 43s consumer: Consuming packet, [^\n]*?producer-43[^\n]*?
At 44s producer: Producing packet, [^\n]*?producer-44[^\n]*?
At 44s meter: Metering packet, [^\n]*?producer-44[^\n]*?
At 44s limiter: Passing through packet, [^\n]*?producer-44[^\n]*?
At 44s consumer: Consuming packet, [^\n]*?producer-44[^\n]*?
At 45s producer: Producing packet, [^\n]*?producer-45[^\n]*?
At 45s meter: Metering packet, [^\n]*?producer-45[^\n]*?
At 45s limiter: Filtering out packet, [^\n]*?producer-45[^\n]*?
At 46s producer: Producing packet, [^\n]*?producer-46[^\n]*?
At 46s meter: Metering packet, [^\n]*?producer-46[^\n]*?
At 46s limiter: Passing through packet, [^\n]*?producer-46[^\n]*?
At 46s consumer: Consuming packet, [^\n]*?producer-46[^\n]*?
At 47s producer: Producing packet, [^\n]*?producer-47[^\n]*?
At 47s meter: Metering packet, [^\n]*?producer-47[^\n]*?
At 47s limiter: Passing through packet, [^\n]*?producer-47[^\n]*?
At 47s consumer: Consuming packet, [^\n]*?producer-47[^\n]*?
At 48s producer: Producing packet, [^\n]*?producer-48[^\n]*?
At 48s meter: Metering packet, [^\n]*?producer-48[^\n]*?
At 48s limiter: Passing through packet, [^\n]*?producer-48[^\n]*?
At 48s consumer: Consuming packet, [^\n]*?producer-48[^\n]*?
At 49s producer: Producing packet, [^\n]*?producer-49[^\n]*?
At 49s meter: Metering packet, [^\n]*?producer-49[^\n]*?
At 49s limiter: Filtering out packet, [^\n]*?producer-49[^\n]*?
At 50s producer: Producing packet, [^\n]*?producer-50[^\n]*?
At 50s meter: Metering packet, [^\n]*?producer-50[^\n]*?
At 50s limiter: Passing through packet, [^\n]*?producer-50[^\n]*?
At 50s consumer: Consuming packet, [^\n]*?producer-50[^\n]*?
At 51s producer: Producing packet, [^\n]*?producer-51[^\n]*?
At 51s meter: Metering packet, [^\n]*?producer-51[^\n]*?
At 51s limiter: Passing through packet, [^\n]*?producer-51[^\n]*?
At 51s consumer: Consuming packet, [^\n]*?producer-51[^\n]*?
At 52s producer: Producing packet, [^\n]*?producer-52[^\n]*?
At 52s meter: Metering packet, [^\n]*?producer-52[^\n]*?
At 52s limiter: Passing through packet, [^\n]*?producer-52[^\n]*?
At 52s consumer: Consuming packet, [^\n]*?producer-52[^\n]*?
At 53s producer: Producing packet, [^\n]*?producer-53[^\n]*?
At 53s meter: Metering packet, [^\n]*?producer-53[^\n]*?
At 53s limiter: Filtering out packet, [^\n]*?producer-53[^\n]*?
At 54s producer: Producing packet, [^\n]*?producer-54[^\n]*?
At 54s meter: Metering packet, [^\n]*?producer-54[^\n]*?
At 54s limiter: Passing through packet, [^\n]*?producer-54[^\n]*?
At 54s consumer: Consuming packet, [^\n]*?producer-54[^\n]*?
At 55s producer: Producing packet, [^\n]*?producer-55[^\n]*?
At 55s meter: Metering packet, [^\n]*?producer-55[^\n]*?
At 55s limiter: Passing through packet, [^\n]*?producer-55[^\n]*?
At 55s consumer: Consuming packet, [^\n]*?producer-55[^\n]*?
At 56s producer: Producing packet, [^\n]*?producer-56[^\n]*?
At 56s meter: Metering packet, [^\n]*?producer-56[^\n]*?
At 56s limiter: Passing through packet, [^\n]*?producer-56[^\n]*?
At 56s consumer: Consuming packet, [^\n]*?producer-56[^\n]*?
At 57s producer: Producing packet, [^\n]*?producer-57[^\n]*?
At 57s meter: Metering packet, [^\n]*?producer-57[^\n]*?
At 57s limiter: Passing through packet, [^\n]*?producer-57[^\n]*?
At 57s consumer: Consuming packet, [^\n]*?producer-57[^\n]*?
At 58s producer: Producing packet, [^\n]*?producer-58[^\n]*?
At 58s meter: Metering packet, [^\n]*?producer-58[^\n]*?
At 58s limiter: Filtering out packet, [^\n]*?producer-58[^\n]*?
At 59s producer: Producing packet, [^\n]*?producer-59[^\n]*?
At 59s meter: Metering packet, [^\n]*?producer-59[^\n]*?
At 59s limiter: Filtering out packet, [^\n]*?producer-59[^\n]*?
At 60s producer: Producing packet, [^\n]*?producer-60[^\n]*?
At 60s meter: Metering packet, [^\n]*?producer-60[^\n]*?
At 60s limiter: Filtering out packet, [^\n]*?producer-60[^\n]*?
At 61s producer: Producing packet, [^\n]*?producer-61[^\n]*?
At 61s meter: Metering packet, [^\n]*?producer-61[^\n]*?
At 61s limiter: Filtering out packet, [^\n]*?producer-61[^\n]*?
At 62s producer: Producing packet, [^\n]*?producer-62[^\n]*?
At 62s meter: Metering packet, [^\n]*?producer-62[^\n]*?
At 62s limiter: Filtering out packet, [^\n]*?producer-62[^\n]*?
At 63s producer: Producing packet, [^\n]*?producer-63[^\n]*?
At 63s meter: Metering packet, [^\n]*?producer-63[^\n]*?
At 63s limiter: Passing through packet, [^\n]*?producer-63[^\n]*?
At 63s consumer: Consuming packet, [^\n]*?producer-63[^\n]*?
At 64s producer: Producing packet, [^\n]*?producer-64[^\n]*?
At 64s meter: Metering packet, [^\n]*?producer-64[^\n]*?
At 64s limiter: Passing through packet, [^\n]*?producer-64[^\n]*?
At 64s consumer: Consuming packet, [^\n]*?producer-64[^\n]*?
At 65s producer: Producing packet, [^\n]*?producer-65[^\n]*?
At 65s meter: Metering packet, [^\n]*?producer-65[^\n]*?
At 65s limiter: Filtering out packet, [^\n]*?producer-65[^\n]*?
At 66s producer: Producing packet, [^\n]*?producer-66[^\n]*?
At 66s meter: Metering packet, [^\n]*?producer-66[^\n]*?
At 66s limiter: Filtering out packet, [^\n]*?producer-66[^\n]*?
At 67s producer: Producing packet, [^\n]*?producer-67[^\n]*?
At 67s meter: Metering packet, [^\n]*?producer-67[^\n]*?
At 67s limiter: Passing through packet, [^\n]*?producer-67[^\n]*?
At 67s consumer: Consuming packet, [^\n]*?producer-67[^\n]*?
At 68s producer: Producing packet, [^\n]*?producer-68[^\n]*?
At 68s meter: Metering packet, [^\n]*?producer-68[^\n]*?
At 68s limiter: Filtering out packet, [^\n]*?producer-68[^\n]*?
At 69s producer: Producing packet, [^\n]*?producer-69[^\n]*?
At 69s meter: Metering packet, [^\n]*?producer-69[^\n]*?
At 69s limiter: Filtering out packet, [^\n]*?producer-69[^\n]*?
At 70s producer: Producing packet, [^\n]*?producer-70[^\n]*?
At 70s meter: Metering packet, [^\n]*?producer-70[^\n]*?
At 70s limiter: Filtering out packet, [^\n]*?producer-70[^\n]*?
At 71s producer: Producing packet, [^\n]*?producer-71[^\n]*?
At 71s meter: Metering packet, [^\n]*?producer-71[^\n]*?
At 71s limiter: Passing through packet, [^\n]*?producer-71[^\n]*?
At 71s consumer: Consuming packet, [^\n]*?producer-71[^\n]*?
At 72s producer: Producing packet, [^\n]*?producer-72[^\n]*?
At 72s meter: Metering packet, [^\n]*?producer-72[^\n]*?
At 72s limiter: Filtering out packet, [^\n]*?producer-72[^\n]*?
At 73s producer: Producing packet, [^\n]*?producer-73[^\n]*?
At 73s meter: Metering packet, [^\n]*?producer-73[^\n]*?
At 73s limiter: Passing through packet, [^\n]*?producer-73[^\n]*?
At 73s consumer: Consuming packet, [^\n]*?producer-73[^\n]*?
At 74s producer: Producing packet, [^\n]*?producer-74[^\n]*?
At 74s meter: Metering packet, [^\n]*?producer-74[^\n]*?
At 74s limiter: Filtering out packet, [^\n]*?producer-74[^\n]*?
At 75s producer: Producing packet, [^\n]*?producer-75[^\n]*?
At 75s meter: Metering packet, [^\n]*?producer-75[^\n]*?
At 75s limiter: Passing through packet, [^\n]*?producer-75[^\n]*?
At 75s consumer: Consuming packet, [^\n]*?producer-75[^\n]*?
At 76s producer: Producing packet, [^\n]*?producer-76[^\n]*?
At 76s meter: Metering packet, [^\n]*?producer-76[^\n]*?
At 76s limiter: Filtering out packet, [^\n]*?producer-76[^\n]*?
At 77s producer: Producing packet, [^\n]*?producer-77[^\n]*?
At 77s meter: Metering packet, [^\n]*?producer-77[^\n]*?
At 77s limiter: Passing through packet, [^\n]*?producer-77[^\n]*?
At 77s consumer: Consuming packet, [^\n]*?producer-77[^\n]*?
At 78s producer: Producing packet, [^\n]*?producer-78[^\n]*?
At 78s meter: Metering packet, [^\n]*?producer-78[^\n]*?
At 78s limiter: Passing through packet, [^\n]*?producer-78[^\n]*?
At 78s consumer: Consuming packet, [^\n]*?producer-78[^\n]*?
At 79s producer: Producing packet, [^\n]*?producer-79[^\n]*?
At 79s meter: Metering packet, [^\n]*?producer-79[^\n]*?
At 79s limiter: Passing through packet, [^\n]*?producer-79[^\n]*?
At 79s consumer: Consuming packet, [^\n]*?producer-79[^\n]*?
At 80s producer: Producing packet, [^\n]*?producer-80[^\n]*?
At 80s meter: Metering packet, [^\n]*?producer-80[^\n]*?
At 80s limiter: Filtering out packet, [^\n]*?producer-80[^\n]*?
At 81s producer: Producing packet, [^\n]*?producer-81[^\n]*?
At 81s meter: Metering packet, [^\n]*?producer-81[^\n]*?
At 81s limiter: Filtering out packet, [^\n]*?producer-81[^\n]*?
At 82s producer: Producing packet, [^\n]*?producer-82[^\n]*?
At 82s meter: Metering packet, [^\n]*?producer-82[^\n]*?
At 82s limiter: Passing through packet, [^\n]*?producer-82[^\n]*?
At 82s consumer: Consuming packet, [^\n]*?producer-82[^\n]*?
At 83s producer: Producing packet, [^\n]*?producer-83[^\n]*?
At 83s meter: Metering packet, [^\n]*?producer-83[^\n]*?
At 83s limiter: Filtering out packet, [^\n]*?producer-83[^\n]*?
At 84s producer: Producing packet, [^\n]*?producer-84[^\n]*?
At 84s meter: Metering packet, [^\n]*?producer-84[^\n]*?
At 84s limiter: Passing through packet, [^\n]*?producer-84[^\n]*?
At 84s consumer: Consuming packet, [^\n]*?producer-84[^\n]*?
At 85s producer: Producing packet, [^\n]*?producer-85[^\n]*?
At 85s meter: Metering packet, [^\n]*?producer-85[^\n]*?
At 85s limiter: Passing through packet, [^\n]*?producer-85[^\n]*?
At 85s consumer: Consuming packet, [^\n]*?producer-85[^\n]*?
At 86s producer: Producing packet, [^\n]*?producer-86[^\n]*?
At 86s meter: Metering packet, [^\n]*?producer-86[^\n]*?
At 86s limiter: Filtering out packet, [^\n]*?producer-86[^\n]*?
At 87s producer: Producing packet, [^\n]*?producer-87[^\n]*?
At 87s meter: Metering packet, [^\n]*?producer-87[^\n]*?
At 87s limiter: Filtering out packet, [^\n]*?producer-87[^\n]*?
At 88s producer: Producing packet, [^\n]*?producer-88[^\n]*?
At 88s meter: Metering packet, [^\n]*?producer-88[^\n]*?
At 88s limiter: Passing through packet, [^\n]*?producer-88[^\n]*?
At 88s consumer: Consuming packet, [^\n]*?producer-88[^\n]*?
At 89s producer: Producing packet, [^\n]*?producer-89[^\n]*?
At 89s meter: Metering packet, [^\n]*?producer-89[^\n]*?
At 89s limiter: Passing through packet, [^\n]*?producer-89[^\n]*?
At 89s consumer: Consuming packet, [^\n]*?producer-89[^\n]*?
At 90s producer: Producing packet, [^\n]*?producer-90[^\n]*?
At 90s meter: Metering packet, [^\n]*?producer-90[^\n]*?
At 90s limiter: Passing through packet, [^\n]*?producer-90[^\n]*?
At 90s consumer: Consuming packet, [^\n]*?producer-90[^\n]*?
At 91s producer: Producing packet, [^\n]*?producer-91[^\n]*?
At 91s meter: Metering packet, [^\n]*?producer-91[^\n]*?
At 91s limiter: Passing through packet, [^\n]*?producer-91[^\n]*?
At 91s consumer: Consuming packet, [^\n]*?producer-91[^\n]*?
At 92s producer: Producing packet, [^\n]*?producer-92[^\n]*?
At 92s meter: Metering packet, [^\n]*?producer-92[^\n]*?
At 92s limiter: Filtering out packet, [^\n]*?producer-92[^\n]*?
At 93s producer: Producing packet, [^\n]*?producer-93[^\n]*?
At 93s meter: Metering packet, [^\n]*?producer-93[^\n]*?
At 93s limiter: Filtering out packet, [^\n]*?producer-93[^\n]*?
At 94s producer: Producing packet, [^\n]*?producer-94[^\n]*?
At 94s meter: Metering packet, [^\n]*?producer-94[^\n]*?
At 94s limiter: Filtering out packet, [^\n]*?producer-94[^\n]*?
At 95s producer: Producing packet, [^\n]*?producer-95[^\n]*?
At 95s meter: Metering packet, [^\n]*?producer-95[^\n]*?
At 95s limiter: Filtering out packet, [^\n]*?producer-95[^\n]*?
At 96s producer: Producing packet, [^\n]*?producer-96[^\n]*?
At 96s meter: Metering packet, [^\n]*?producer-96[^\n]*?
At 96s limiter: Passing through packet, [^\n]*?producer-96[^\n]*?
At 96s consumer: Consuming packet, [^\n]*?producer-96[^\n]*?
At 97s producer: Producing packet, [^\n]*?producer-97[^\n]*?
At 97s meter: Metering packet, [^\n]*?producer-97[^\n]*?
At 97s limiter: Filtering out packet, [^\n]*?producer-97[^\n]*?
At 98s producer: Producing packet, [^\n]*?producer-98[^\n]*?
At 98s meter: Metering packet, [^\n]*?producer-98[^\n]*?
At 98s limiter: Passing through packet, [^\n]*?producer-98[^\n]*?
At 98s consumer: Consuming packet, [^\n]*?producer-98[^\n]*?
At 99s producer: Producing packet, [^\n]*?producer-99[^\n]*?
At 99s meter: Metering packet, [^\n]*?producer-99[^\n]*?
At 99s limiter: Filtering out packet, [^\n]*?producer-99[^\n]*?
At 100s producer: Producing packet, [^\n]*?producer-100[^\n]*?
At 100s meter: Metering packet, [^\n]*?producer-100[^\n]*?
At 100s limiter: Filtering out packet, [^\n]*?producer-100[^\n]*?

<!> Simulation time limit reached -- at t=100s
