%description:

TODO

%file: test.ned

import inet.queueing.meter.MultiTokenBucketMeter;
import inet.queueing.sink.PassivePacketSink;
import inet.queueing.source.ActivePacketSource;

network TestTokenBucket
{
    submodules:
        producer: ActivePacketSource {
            @display("p=100,100");
        }
        meter: MultiTokenBucketMeter {
            @display("p=200,100");
        }
        consumer: PassivePacketSink {
            @display("p=300,100");
        }
    connections allowunconnected:
        producer.out --> meter.in;
        meter.out --> consumer.in;
}

%inifile: omnetpp.ini

[General]
network = TestTokenBucket
sim-time-limit = 10s
cmdenv-event-banners = false
cmdenv-log-prefix = "At %ts %N: "
*.producer.packetLength = 1B
*.producer.productionInterval = exponential(1s)
*.meter.buckets = [{tokenProductionRate: 4, label: "green"}, {tokenProductionRate: 2, label: "yellow"}]

%# remove formatting
%subst: /\x1B\[[0-9;]*m//

%subst: /\nRunning simulation\.\.\.\n//

%contains-regex: stdout
At [^\n]*?: Producing packet, .*?producer-0.*?
At [^\n]*?: Metering packet, .*?producer-0.*?
At [^\n]*?: Checking tokens for packet, .*?8.*?0.*?producer-0.*?
At [^\n]*?: Checking tokens for packet, .*?8.*?0.*?producer-0.*?
At [^\n]*?: Insufficient number of tokens for packet, .*?8.*?producer-0.*?
At [^\n]*?: Consuming packet, .*?producer-0.*?
At [^\n]*?: Producing packet, .*?producer-1.*?
At [^\n]*?: Metering packet, .*?producer-1.*?
At [^\n]*?: Checking tokens for packet, .*?8.*?3.1835.*?producer-1.*?
At [^\n]*?: Checking tokens for packet, .*?8.*?1.59175.*?producer-1.*?
At [^\n]*?: Insufficient number of tokens for packet, .*?8.*?producer-1.*?
At [^\n]*?: Consuming packet, .*?producer-1.*?
At [^\n]*?: Producing packet, .*?producer-2.*?
At [^\n]*?: Metering packet, .*?producer-2.*?
At [^\n]*?: Checking tokens for packet, .*?8.*?6.77774.*?producer-2.*?
At [^\n]*?: Checking tokens for packet, .*?8.*?3.38887.*?producer-2.*?
At [^\n]*?: Insufficient number of tokens for packet, .*?8.*?producer-2.*?
At [^\n]*?: Consuming packet, .*?producer-2.*?
At [^\n]*?: Producing packet, .*?producer-3.*?
At [^\n]*?: Metering packet, .*?producer-3.*?
At [^\n]*?: Checking tokens for packet, .*?8.*?11.8015.*?producer-3.*?
At [^\n]*?: Removed tokens, labeling packet, .*?8.*?3.80146.*?green.*?producer-3.*?
At [^\n]*?: Consuming packet, .*?producer-3.*?
At [^\n]*?: Producing packet, .*?producer-4.*?
At [^\n]*?: Metering packet, .*?producer-4.*?
At [^\n]*?: Checking tokens for packet, .*?8.*?11.2399.*?producer-4.*?
At [^\n]*?: Removed tokens, labeling packet, .*?8.*?3.23988.*?green.*?producer-4.*?
At [^\n]*?: Consuming packet, .*?producer-4.*?
At [^\n]*?: Producing packet, .*?producer-5.*?
At [^\n]*?: Metering packet, .*?producer-5.*?
At [^\n]*?: Checking tokens for packet, .*?8.*?6.93277.*?producer-5.*?
At [^\n]*?: Checking tokens for packet, .*?8.*?11.4664.*?producer-5.*?
At [^\n]*?: Removed tokens, labeling packet, .*?8.*?3.46639.*?yellow.*?producer-5.*?
At [^\n]*?: Consuming packet, .*?producer-5.*?
At [^\n]*?: Producing packet, .*?producer-6.*?
At [^\n]*?: Metering packet, .*?producer-6.*?
At [^\n]*?: Checking tokens for packet, .*?8.*?14.739.*?producer-6.*?
At [^\n]*?: Removed tokens, labeling packet, .*?8.*?6.73895.*?green.*?producer-6.*?
At [^\n]*?: Consuming packet, .*?producer-6.*?
At [^\n]*?: Producing packet, .*?producer-7.*?
At [^\n]*?: Metering packet, .*?producer-7.*?
At [^\n]*?: Checking tokens for packet, .*?8.*?9.88776.*?producer-7.*?
At [^\n]*?: Removed tokens, labeling packet, .*?8.*?1.88776.*?green.*?producer-7.*?
At [^\n]*?: Consuming packet, .*?producer-7.*?
