%description:

TODO

%file: test.ned

import inet.queueing.classifier.MultiTokenBucketClassifier;
import inet.queueing.sink.PassivePacketSink;
import inet.queueing.source.ActivePacketSource;

network TestTokenBucket
{
    submodules:
        producer: ActivePacketSource {
            @display("p=100,100");
        }
        classifier: MultiTokenBucketClassifier {
            @display("p=200,100");
        }
        greenConsumer: PassivePacketSink {
            @display("p=300,100");
        }
        yellowConsumer: PassivePacketSink {
            @display("p=300,200");
        }
        redConsumer: PassivePacketSink {
            @display("p=300,300");
        }
    connections allowunconnected:
        producer.out --> classifier.in;
        classifier.out++ --> greenConsumer.in;
        classifier.out++ --> yellowConsumer.in;
        classifier.out++ --> redConsumer.in;
}

%inifile: omnetpp.ini

[General]
network = TestTokenBucket
sim-time-limit = 10s
cmdenv-log-prefix = "At %ts %N: "
cmdenv-event-banners = false
*.producer.packetLength = 1B
*.producer.productionInterval = exponential(1s)
*.classifier.buckets = [{tokenProductionRate: 4, label: "green"}, {tokenProductionRate: 2, label: "yellow"}]

%# remove formatting
%subst: /\x1B\[[0-9;]*m//

%subst: /\nRunning simulation\.\.\.\n//

%contains-regex: stdout
At [^\n]*? producer: Producing packet, .*?producer-0.*?
At [^\n]*? classifier: Classifying packet, .*?producer-0.*?
At [^\n]*? classifier: Checking tokens for packet, .*?8.*?0.*?producer-0.*?
At [^\n]*? classifier: Checking tokens for packet, .*?8.*?0.*?producer-0.*?
At [^\n]*? classifier: Insufficient number of tokens for packet, .*?8.*?producer-0.*?
At [^\n]*? redConsumer: Consuming packet, .*?producer-0.*?
At [^\n]*? producer: Producing packet, .*?producer-1.*?
At [^\n]*? classifier: Classifying packet, .*?producer-1.*?
At [^\n]*? classifier: Checking tokens for packet, .*?8.*?3.1835.*?producer-1.*?
At [^\n]*? classifier: Checking tokens for packet, .*?8.*?1.59175.*?producer-1.*?
At [^\n]*? classifier: Insufficient number of tokens for packet, .*?8.*?producer-1.*?
At [^\n]*? redConsumer: Consuming packet, .*?producer-1.*?
At [^\n]*? producer: Producing packet, .*?producer-2.*?
At [^\n]*? classifier: Classifying packet, .*?producer-2.*?
At [^\n]*? classifier: Checking tokens for packet, .*?8.*?6.77774.*?producer-2.*?
At [^\n]*? classifier: Checking tokens for packet, .*?8.*?3.38887.*?producer-2.*?
At [^\n]*? classifier: Insufficient number of tokens for packet, .*?8.*?producer-2.*?
At [^\n]*? redConsumer: Consuming packet, .*?producer-2.*?
At [^\n]*? producer: Producing packet, .*?producer-3.*?
At [^\n]*? classifier: Classifying packet, .*?producer-3.*?
At [^\n]*? classifier: Checking tokens for packet, .*?8.*?11.8015.*?producer-3.*?
At [^\n]*? classifier: Removed tokens from ith bucket for packet, .*?8.*?0.*?3.80146.*?producer-3.*?
At [^\n]*? greenConsumer: Consuming packet, .*?producer-3.*?
At [^\n]*? producer: Producing packet, .*?producer-4.*?
At [^\n]*? classifier: Classifying packet, .*?producer-4.*?
At [^\n]*? classifier: Checking tokens for packet, .*?8.*?11.2399.*?producer-4.*?
At [^\n]*? classifier: Removed tokens from ith bucket for packet, .*?8.*?0.*?3.23988.*?producer-4.*?
At [^\n]*? greenConsumer: Consuming packet, .*?producer-4.*?
At [^\n]*? producer: Producing packet, .*?producer-5.*?
At [^\n]*? classifier: Classifying packet, .*?producer-5.*?
At [^\n]*? classifier: Checking tokens for packet, .*?8.*?6.93277.*?producer-5.*?
At [^\n]*? classifier: Checking tokens for packet, .*?8.*?11.4664.*?producer-5.*?
At [^\n]*? classifier: Removed tokens from ith bucket for packet, .*?8.*?1.*?3.46639.*?producer-5.*?
At [^\n]*? yellowConsumer: Consuming packet, .*?producer-5.*?
At [^\n]*? producer: Producing packet, .*?producer-6.*?
At [^\n]*? classifier: Classifying packet, .*?producer-6.*?
At [^\n]*? classifier: Checking tokens for packet, .*?8.*?14.739.*?producer-6.*?
At [^\n]*? classifier: Removed tokens from ith bucket for packet, .*?8.*?0.*?6.73895.*?producer-6.*?
At [^\n]*? greenConsumer: Consuming packet, .*?producer-6.*?
At [^\n]*? producer: Producing packet, .*?producer-7.*?
At [^\n]*? classifier: Classifying packet, .*?producer-7.*?
At [^\n]*? classifier: Checking tokens for packet, .*?8.*?9.88776.*?producer-7.*?
At [^\n]*? classifier: Removed tokens from ith bucket for packet, .*?8.*?0.*?1.88776.*?producer-7.*?
At [^\n]*? greenConsumer: Consuming packet, .*?producer-7.*?
