%description:

In this test, packets are produced periodically (randomly) by several active
packet sources (ActivePacketSources). The packets are consumed by a single passive
packet sink upon arrival (PassivePacketSink). The single sink is connected to the
multiple sources using an intermediary component (PacketMultiplexer) which simply
forwards packets.*?

%file: test.ned

import inet.queueing.sink.PassivePacketSink;
import inet.queueing.common.PacketMultiplexer;
import inet.queueing.source.ActivePacketSource;

network TestServer
{
    parameters:
        int numProducers;
    submodules:
        producer[numProducers]: ActivePacketSource {
            @display("p=100,100");
        }
        multiplexer: PacketMultiplexer {
            @display("p=200,100");
        }
        consumer: PassivePacketSink {
            @display("p=300,100");
        }
    connections allowunconnected:
        for i=0..numProducers-1 {
        	producer[i].out --> multiplexer.in++;
      	}
        multiplexer.out --> consumer.in;
}

%inifile: omnetpp.ini

[General]
network = TestServer
sim-time-limit = 10s
cmdenv-event-banners = false
cmdenv-log-prefix = "At %ts %N: "
*.numProducers = 3
*.producer[*].packetLength = 1B
*.producer[*].productionInterval = uniform(0s, 2s)

%# remove formatting
%subst: /\x1B\[[0-9;]*m//

%subst: /\nRunning simulation\.\.\.\n//

%contains-regex: stdout
At [^\n]*?: Producing packet, .*?producer\[0\]-0.*?
At [^\n]*?: Forwarding packet, .*?producer\[0\]-0.*?
At [^\n]*?: Consuming packet, .*?producer\[0\]-0.*?
At [^\n]*?: Producing packet, .*?producer\[1\]-0.*?
At [^\n]*?: Forwarding packet, .*?producer\[1\]-0.*?
At [^\n]*?: Consuming packet, .*?producer\[1\]-0.*?
At [^\n]*?: Producing packet, .*?producer\[2\]-0.*?
At [^\n]*?: Forwarding packet, .*?producer\[2\]-0.*?
At [^\n]*?: Consuming packet, .*?producer\[2\]-0.*?
At [^\n]*?: Producing packet, .*?producer\[0\]-1.*?
At [^\n]*?: Forwarding packet, .*?producer\[0\]-1.*?
At [^\n]*?: Consuming packet, .*?producer\[0\]-1.*?
At [^\n]*?: Producing packet, .*?producer\[1\]-1.*?
At [^\n]*?: Forwarding packet, .*?producer\[1\]-1.*?
At [^\n]*?: Consuming packet, .*?producer\[1\]-1.*?
At [^\n]*?: Producing packet, .*?producer\[2\]-1.*?
At [^\n]*?: Forwarding packet, .*?producer\[2\]-1.*?
At [^\n]*?: Consuming packet, .*?producer\[2\]-1.*?
At [^\n]*?: Producing packet, .*?producer\[1\]-2.*?
At [^\n]*?: Forwarding packet, .*?producer\[1\]-2.*?
At [^\n]*?: Consuming packet, .*?producer\[1\]-2.*?
At [^\n]*?: Producing packet, .*?producer\[0\]-2.*?
At [^\n]*?: Forwarding packet, .*?producer\[0\]-2.*?
At [^\n]*?: Consuming packet, .*?producer\[0\]-2.*?
At [^\n]*?: Producing packet, .*?producer\[2\]-2.*?
At [^\n]*?: Forwarding packet, .*?producer\[2\]-2.*?
At [^\n]*?: Consuming packet, .*?producer\[2\]-2.*?
At [^\n]*?: Producing packet, .*?producer\[1\]-3.*?
At [^\n]*?: Forwarding packet, .*?producer\[1\]-3.*?
At [^\n]*?: Consuming packet, .*?producer\[1\]-3.*?
At [^\n]*?: Producing packet, .*?producer\[2\]-3.*?
At [^\n]*?: Forwarding packet, .*?producer\[2\]-3.*?
At [^\n]*?: Consuming packet, .*?producer\[2\]-3.*?
At [^\n]*?: Producing packet, .*?producer\[0\]-3.*?
At [^\n]*?: Forwarding packet, .*?producer\[0\]-3.*?
At [^\n]*?: Consuming packet, .*?producer\[0\]-3.*?
At [^\n]*?: Producing packet, .*?producer\[1\]-4.*?
At [^\n]*?: Forwarding packet, .*?producer\[1\]-4.*?
At [^\n]*?: Consuming packet, .*?producer\[1\]-4.*?
At [^\n]*?: Producing packet, .*?producer\[0\]-4.*?
At [^\n]*?: Forwarding packet, .*?producer\[0\]-4.*?
At [^\n]*?: Consuming packet, .*?producer\[0\]-4.*?
At [^\n]*?: Producing packet, .*?producer\[2\]-4.*?
At [^\n]*?: Forwarding packet, .*?producer\[2\]-4.*?
At [^\n]*?: Consuming packet, .*?producer\[2\]-4.*?
At [^\n]*?: Producing packet, .*?producer\[1\]-5.*?
At [^\n]*?: Forwarding packet, .*?producer\[1\]-5.*?
At [^\n]*?: Consuming packet, .*?producer\[1\]-5.*?
At [^\n]*?: Producing packet, .*?producer\[1\]-6.*?
At [^\n]*?: Forwarding packet, .*?producer\[1\]-6.*?
At [^\n]*?: Consuming packet, .*?producer\[1\]-6.*?
At [^\n]*?: Producing packet, .*?producer\[0\]-5.*?
At [^\n]*?: Forwarding packet, .*?producer\[0\]-5.*?
At [^\n]*?: Consuming packet, .*?producer\[0\]-5.*?
At [^\n]*?: Producing packet, .*?producer\[0\]-6.*?
At [^\n]*?: Forwarding packet, .*?producer\[0\]-6.*?
At [^\n]*?: Consuming packet, .*?producer\[0\]-6.*?
At [^\n]*?: Producing packet, .*?producer\[2\]-5.*?
At [^\n]*?: Forwarding packet, .*?producer\[2\]-5.*?
At [^\n]*?: Consuming packet, .*?producer\[2\]-5.*?
At [^\n]*?: Producing packet, .*?producer\[0\]-7.*?
At [^\n]*?: Forwarding packet, .*?producer\[0\]-7.*?
At [^\n]*?: Consuming packet, .*?producer\[0\]-7.*?
At [^\n]*?: Producing packet, .*?producer\[1\]-7.*?
At [^\n]*?: Forwarding packet, .*?producer\[1\]-7.*?
At [^\n]*?: Consuming packet, .*?producer\[1\]-7.*?
At [^\n]*?: Producing packet, .*?producer\[2\]-6.*?
At [^\n]*?: Forwarding packet, .*?producer\[2\]-6.*?
At [^\n]*?: Consuming packet, .*?producer\[2\]-6.*?
At [^\n]*?: Producing packet, .*?producer\[0\]-8.*?
At [^\n]*?: Forwarding packet, .*?producer\[0\]-8.*?
At [^\n]*?: Consuming packet, .*?producer\[0\]-8.*?
At [^\n]*?: Producing packet, .*?producer\[2\]-7.*?
At [^\n]*?: Forwarding packet, .*?producer\[2\]-7.*?
At [^\n]*?: Consuming packet, .*?producer\[2\]-7.*?
At [^\n]*?: Producing packet, .*?producer\[1\]-8.*?
At [^\n]*?: Forwarding packet, .*?producer\[1\]-8.*?
At [^\n]*?: Consuming packet, .*?producer\[1\]-8.*?
At [^\n]*?: Producing packet, .*?producer\[0\]-9.*?
At [^\n]*?: Forwarding packet, .*?producer\[0\]-9.*?
At [^\n]*?: Consuming packet, .*?producer\[0\]-9.*?
