%description:

TODO

%file: test.ned

import inet.queueing.sink.PassivePacketSink;
import inet.queueing.common.PacketDelayer;
import inet.queueing.source.ActivePacketSource;
import inet.queueing.queue.PacketQueue;
import inet.queueing.server.PacketServer;

module TestMac
{
    gates:
        input lowerIn;
        input upperIn;
        output lowerOut;
        output upperOut;
    submodules:
        queue: PacketQueue;
        server: PacketServer;
    connections:
        upperIn --> queue.in;
        queue.out --> server.in;
        server.out --> lowerOut;
        lowerIn --> upperOut;
}

module TestHost
{
    gates:
        input lowerIn;
        output lowerOut;
    submodules:
        sourceApplication: ActivePacketSource;
        destinationApplication: PassivePacketSink;
        mac: TestMac;
    connections:
    	sourceApplication.out --> mac.upperIn;
    	mac.lowerOut --> lowerOut;
        lowerIn --> mac.lowerIn;
    	mac.upperOut --> destinationApplication.in;
}

module TestCable
{
    gates:
        input aIn;
        output aOut;
        input bIn;
        output bOut;
    submodules:
        aDelayer: PacketDelayer;
        bDelayer: PacketDelayer;
    connections:
        aIn --> aDelayer.in;
        aDelayer.out --> aOut;
        bIn --> bDelayer.in;
        bDelayer.out --> bOut;
}

network TestNetwork
{
    submodules:
        source: TestHost;
        destination: TestHost;
        cable: TestCable;
    connections:
        source.lowerOut --> cable.aIn;
        cable.aOut --> destination.lowerIn;
        destination.lowerOut --> cable.bIn;
        cable.bOut --> source.lowerIn;
}

%inifile: omnetpp.ini

[General]
network = TestNetwork
sim-time-limit = 10s
cmdenv-event-banners = false
cmdenv-log-prefix = "At %ts %N: "
*.*.sourceApplication.packetLength = 1B
*.*.sourceApplication.productionInterval = uniform(0s, 2s)
*.*.mac.server.processingTime = uniform(0s, 2s)
*.cable.*Delayer.delay = uniform(0s, 2s)

%# remove formatting
%subst: /\x1B\[[0-9;]*m//

%subst: /\nRunning simulation\.\.\.\n//

%contains-regex: stdout
At [^\n]*?: Producing packet, .*?sourceApplication-0.*?
At [^\n]*?: Pushing packet, .*?sourceApplication-0.*?
At [^\n]*?: Pulling packet, .*?sourceApplication-0.*?
At [^\n]*?: Processing packet started, (.*?sourceApplication-0).*?
At [^\n]*?: Producing packet, .*?sourceApplication-0.*?
At [^\n]*?: Pushing packet, .*?sourceApplication-0.*?
At [^\n]*?: Pulling packet, .*?sourceApplication-0.*?
At [^\n]*?: Processing packet started, (.*?sourceApplication-0).*?
At [^\n]*?: Producing packet, .*?sourceApplication-1.*?
At [^\n]*?: Pushing packet, .*?sourceApplication-1.*?
At [^\n]*?: Processing packet ended, (.*?sourceApplication-0).*?
At [^\n]*?: Delaying packet, .*?sourceApplication-0.*?
At [^\n]*?: Pulling packet, .*?sourceApplication-1.*?
At [^\n]*?: Processing packet started, (.*?sourceApplication-1).*?
At [^\n]*?: Producing packet, .*?sourceApplication-1.*?
At [^\n]*?: Pushing packet, .*?sourceApplication-1.*?
At [^\n]*?: Processing packet ended, (.*?sourceApplication-0).*?
At [^\n]*?: Delaying packet, .*?sourceApplication-0.*?
At [^\n]*?: Pulling packet, .*?sourceApplication-1.*?
At [^\n]*?: Processing packet started, (.*?sourceApplication-1).*?
At [^\n]*?: Processing packet ended, (.*?sourceApplication-1).*?
At [^\n]*?: Delaying packet, .*?sourceApplication-1.*?
At [^\n]*?: Producing packet, .*?sourceApplication-2.*?
At [^\n]*?: Pushing packet, .*?sourceApplication-2.*?
At [^\n]*?: Pulling packet, .*?sourceApplication-2.*?
At [^\n]*?: Processing packet started, (.*?sourceApplication-2).*?
At [^\n]*?: Consuming packet, .*?sourceApplication-0.*?
At [^\n]*?: Consuming packet, .*?sourceApplication-0.*?
At [^\n]*?: Processing packet ended, (.*?sourceApplication-1).*?
At [^\n]*?: Delaying packet, .*?sourceApplication-1.*?
At [^\n]*?: Producing packet, .*?sourceApplication-3.*?
At [^\n]*?: Pushing packet, .*?sourceApplication-3.*?
At [^\n]*?: Producing packet, .*?sourceApplication-2.*?
At [^\n]*?: Pushing packet, .*?sourceApplication-2.*?
At [^\n]*?: Pulling packet, .*?sourceApplication-2.*?
At [^\n]*?: Processing packet started, (.*?sourceApplication-2).*?
At [^\n]*?: Processing packet ended, (.*?sourceApplication-2).*?
At [^\n]*?: Delaying packet, .*?sourceApplication-2.*?
At [^\n]*?: Pulling packet, .*?sourceApplication-3.*?
At [^\n]*?: Processing packet started, (.*?sourceApplication-3).*?
At [^\n]*?: Producing packet, .*?sourceApplication-3.*?
At [^\n]*?: Pushing packet, .*?sourceApplication-3.*?
At [^\n]*?: Consuming packet, .*?sourceApplication-1.*?
At [^\n]*?: Consuming packet, .*?sourceApplication-1.*?
At [^\n]*?: Consuming packet, .*?sourceApplication-2.*?
At [^\n]*?: Processing packet ended, (.*?sourceApplication-3).*?
At [^\n]*?: Delaying packet, .*?sourceApplication-3.*?
At [^\n]*?: Producing packet, .*?sourceApplication-4.*?
At [^\n]*?: Pushing packet, .*?sourceApplication-4.*?
At [^\n]*?: Producing packet, .*?sourceApplication-4.*?
At [^\n]*?: Pushing packet, .*?sourceApplication-4.*?
At [^\n]*?: Pulling packet, .*?sourceApplication-4.*?
At [^\n]*?: Processing packet started, (.*?sourceApplication-4).*?
At [^\n]*?: Processing packet ended, (.*?sourceApplication-2).*?
At [^\n]*?: Delaying packet, .*?sourceApplication-2.*?
At [^\n]*?: Pulling packet, .*?sourceApplication-3.*?
At [^\n]*?: Processing packet started, (.*?sourceApplication-3).*?
At [^\n]*?: Consuming packet, .*?sourceApplication-3.*?
At [^\n]*?: Processing packet ended, (.*?sourceApplication-4).*?
At [^\n]*?: Delaying packet, .*?sourceApplication-4.*?
At [^\n]*?: Producing packet, .*?sourceApplication-5.*?
At [^\n]*?: Pushing packet, .*?sourceApplication-5.*?
At [^\n]*?: Processing packet ended, (.*?sourceApplication-3).*?
At [^\n]*?: Delaying packet, .*?sourceApplication-3.*?
At [^\n]*?: Pulling packet, .*?sourceApplication-4.*?
At [^\n]*?: Processing packet started, (.*?sourceApplication-4).*?
At [^\n]*?: Producing packet, .*?sourceApplication-5.*?
At [^\n]*?: Pushing packet, .*?sourceApplication-5.*?
At [^\n]*?: Pulling packet, .*?sourceApplication-5.*?
At [^\n]*?: Processing packet started, (.*?sourceApplication-5).*?
At [^\n]*?: Consuming packet, .*?sourceApplication-3.*?
At [^\n]*?: Producing packet, .*?sourceApplication-6.*?
At [^\n]*?: Pushing packet, .*?sourceApplication-6.*?
At [^\n]*?: Producing packet, .*?sourceApplication-7.*?
At [^\n]*?: Pushing packet, .*?sourceApplication-7.*?
At [^\n]*?: Consuming packet, .*?sourceApplication-2.*?
At [^\n]*?: Processing packet ended, (.*?sourceApplication-4).*?
At [^\n]*?: Delaying packet, .*?sourceApplication-4.*?
At [^\n]*?: Pulling packet, .*?sourceApplication-5.*?
At [^\n]*?: Processing packet started, (.*?sourceApplication-5).*?
At [^\n]*?: Producing packet, .*?sourceApplication-8.*?
At [^\n]*?: Pushing packet, .*?sourceApplication-8.*?
At [^\n]*?: Processing packet ended, (.*?sourceApplication-5).*?
At [^\n]*?: Delaying packet, .*?sourceApplication-5.*?
At [^\n]*?: Pulling packet, .*?sourceApplication-6.*?
At [^\n]*?: Processing packet started, (.*?sourceApplication-6).*?
At [^\n]*?: Producing packet, .*?sourceApplication-6.*?
At [^\n]*?: Pushing packet, .*?sourceApplication-6.*?
At [^\n]*?: Consuming packet, .*?sourceApplication-5.*?
At [^\n]*?: Consuming packet, .*?sourceApplication-4.*?
At [^\n]*?: Consuming packet, .*?sourceApplication-4.*?
At [^\n]*?: Producing packet, .*?sourceApplication-9.*?
At [^\n]*?: Pushing packet, .*?sourceApplication-9.*?
At [^\n]*?: Processing packet ended, (.*?sourceApplication-5).*?
At [^\n]*?: Delaying packet, .*?sourceApplication-5.*?
At [^\n]*?: Pulling packet, .*?sourceApplication-6.*?
At [^\n]*?: Processing packet started, (.*?sourceApplication-6).*?
At [^\n]*?: Processing packet ended, (.*?sourceApplication-6).*?
At [^\n]*?: Delaying packet, .*?sourceApplication-6.*?
At [^\n]*?: Pulling packet, .*?sourceApplication-7.*?
At [^\n]*?: Processing packet started, (.*?sourceApplication-7).*?
At [^\n]*?: Producing packet, .*?sourceApplication-7.*?
At [^\n]*?: Pushing packet, .*?sourceApplication-7.*?
At [^\n]*?: Consuming packet, .*?sourceApplication-5.*?
At [^\n]*?: Processing packet ended, (.*?sourceApplication-7).*?
At [^\n]*?: Delaying packet, .*?sourceApplication-7.*?
At [^\n]*?: Pulling packet, .*?sourceApplication-8.*?
At [^\n]*?: Processing packet started, (.*?sourceApplication-8).*?
