%description:

In this test, packets are produced periodically by an active packet source
(ActivePacketSource). The packets are consumed by a passive packet sink (PassivePacketSink).
Packets are passed through from the source to the sink by a dropper (OrdinalBasedDropper).
Every second packet is dropped based on its ordinal number.

%file: test.ned

import inet.queueing.filter.OrdinalBasedDropper;
import inet.queueing.sink.PassivePacketSink;
import inet.queueing.source.ActivePacketSource;

network TestOrdinalBasedDropper
{
    submodules:
        producer: ActivePacketSource {
            @display("p=100,100");
        }
        dropper: OrdinalBasedDropper {
            @display("p=200,100");
        }
        consumer: PassivePacketSink {
            @display("p=300,100");
        }
    connections:
        producer.out --> dropper.in;
        dropper.out --> consumer.in;
}

%inifile: omnetpp.ini

[General]
network = TestOrdinalBasedDropper
sim-time-limit = 10s
cmdenv-event-banners = false
cmdenv-log-prefix = "At %ts %N: "
*.producer.packetLength = 1B
*.producer.productionInterval = 1s
*.dropper.dropsVector = "0; 2; 4; 6; 8; 10"

%# remove formatting
%subst: /\x1B\[[0-9;]*m//

%subst: /\nRunning simulation\.\.\.\n//

%contains-regex: stdout
At 0s dropper: , dropsVector = 0; 2; 4; 6; 8; 10.
At 0s producer: Producing packet, [^\n]*?producer-0[^\n]*?
At 0s dropper: Filtering out packet, [^\n]*?producer-0[^\n]*?
At 0s dropper: Dropping packet, [^\n]*?0[^\n]*?producer-0[^\n]*?
At 1s producer: Producing packet, [^\n]*?producer-1[^\n]*?
At 1s dropper: Passing through packet, [^\n]*?producer-1[^\n]*?
At 1s consumer: Consuming packet, [^\n]*?producer-1[^\n]*?
At 2s producer: Producing packet, [^\n]*?producer-2[^\n]*?
At 2s dropper: Filtering out packet, [^\n]*?producer-2[^\n]*?
At 2s dropper: Dropping packet, [^\n]*?2[^\n]*?producer-2[^\n]*?
At 3s producer: Producing packet, [^\n]*?producer-3[^\n]*?
At 3s dropper: Passing through packet, [^\n]*?producer-3[^\n]*?
At 3s consumer: Consuming packet, [^\n]*?producer-3[^\n]*?
At 4s producer: Producing packet, [^\n]*?producer-4[^\n]*?
At 4s dropper: Filtering out packet, [^\n]*?producer-4[^\n]*?
At 4s dropper: Dropping packet, [^\n]*?4[^\n]*?producer-4[^\n]*?
At 5s producer: Producing packet, [^\n]*?producer-5[^\n]*?
At 5s dropper: Passing through packet, [^\n]*?producer-5[^\n]*?
At 5s consumer: Consuming packet, [^\n]*?producer-5[^\n]*?
At 6s producer: Producing packet, [^\n]*?producer-6[^\n]*?
At 6s dropper: Filtering out packet, [^\n]*?producer-6[^\n]*?
At 6s dropper: Dropping packet, [^\n]*?6[^\n]*?producer-6[^\n]*?
At 7s producer: Producing packet, [^\n]*?producer-7[^\n]*?
At 7s dropper: Passing through packet, [^\n]*?producer-7[^\n]*?
At 7s consumer: Consuming packet, [^\n]*?producer-7[^\n]*?
At 8s producer: Producing packet, [^\n]*?producer-8[^\n]*?
At 8s dropper: Filtering out packet, [^\n]*?producer-8[^\n]*?
At 8s dropper: Dropping packet, [^\n]*?8[^\n]*?producer-8[^\n]*?
At 9s producer: Producing packet, [^\n]*?producer-9[^\n]*?
At 9s dropper: Passing through packet, [^\n]*?producer-9[^\n]*?
At 9s consumer: Consuming packet, [^\n]*?producer-9[^\n]*?
At 10s producer: Producing packet, [^\n]*?producer-10[^\n]*?
At 10s dropper: Filtering out packet, [^\n]*?producer-10[^\n]*?
At 10s dropper: Dropping packet, [^\n]*?10[^\n]*?producer-10[^\n]*?
At 10s dropper: End of dropsVector reached.
