%description:

TODO

%file: test.ned

import inet.queueing.sink.ActivePacketSink;
import inet.queueing.queue.PacketQueue;
import inet.queueing.source.QueueFiller;

network TestQueueFiller
{
    submodules:
        filler: QueueFiller {
            @display("p=100,100");
        }
        queue: PacketQueue {
            @display("p=200,100");
        }
        consumer: ActivePacketSink {
            @display("p=300,100");
        }
    connections allowunconnected:
    	filler.out --> queue.in;
    	queue.out --> consumer.in;
}

%inifile: omnetpp.ini

[General]
network = TestQueueFiller
sim-time-limit = 10s
cmdenv-event-banners = false
cmdenv-log-prefix = "At %ts %N: "
*.filler.provider.packetLength = 1B
*.filler.tokenGenerator.queueModule = "queue"
*.consumer.collectionInterval = 1s

%# remove formatting
%subst: /\x1B\[[0-9;]*m//

%subst: /\nRunning simulation\.\.\.\n//

%contains-regex: stdout
At 0s provider: Providing packet, [^\n]*?provider-0[^\n]*?
At 0s server: Processing packet, [^\n]*?provider-0[^\n]*?
At 0s queue: Pushing packet, [^\n]*?provider-0[^\n]*?
At 0s queue: Pulling packet, [^\n]*?provider-0[^\n]*?
At 0s consumer: Collecting packet, [^\n]*?provider-0[^\n]*?
At 0s provider: Providing packet, [^\n]*?provider-1[^\n]*?
At 0s server: Processing packet, [^\n]*?provider-1[^\n]*?
At 0s queue: Pushing packet, [^\n]*?provider-1[^\n]*?
At 1s queue: Pulling packet, [^\n]*?provider-1[^\n]*?
At 1s provider: Providing packet, [^\n]*?provider-2[^\n]*?
At 1s server: Processing packet, [^\n]*?provider-2[^\n]*?
At 1s queue: Pushing packet, [^\n]*?provider-2[^\n]*?
At 1s consumer: Collecting packet, [^\n]*?provider-1[^\n]*?
At 2s queue: Pulling packet, [^\n]*?provider-2[^\n]*?
At 2s provider: Providing packet, [^\n]*?provider-3[^\n]*?
At 2s server: Processing packet, [^\n]*?provider-3[^\n]*?
At 2s queue: Pushing packet, [^\n]*?provider-3[^\n]*?
At 2s consumer: Collecting packet, [^\n]*?provider-2[^\n]*?
At 3s queue: Pulling packet, [^\n]*?provider-3[^\n]*?
At 3s provider: Providing packet, [^\n]*?provider-4[^\n]*?
At 3s server: Processing packet, [^\n]*?provider-4[^\n]*?
At 3s queue: Pushing packet, [^\n]*?provider-4[^\n]*?
At 3s consumer: Collecting packet, [^\n]*?provider-3[^\n]*?
At 4s queue: Pulling packet, [^\n]*?provider-4[^\n]*?
At 4s provider: Providing packet, [^\n]*?provider-5[^\n]*?
At 4s server: Processing packet, [^\n]*?provider-5[^\n]*?
At 4s queue: Pushing packet, [^\n]*?provider-5[^\n]*?
At 4s consumer: Collecting packet, [^\n]*?provider-4[^\n]*?
At 5s queue: Pulling packet, [^\n]*?provider-5[^\n]*?
At 5s provider: Providing packet, [^\n]*?provider-6[^\n]*?
At 5s server: Processing packet, [^\n]*?provider-6[^\n]*?
At 5s queue: Pushing packet, [^\n]*?provider-6[^\n]*?
At 5s consumer: Collecting packet, [^\n]*?provider-5[^\n]*?
At 6s queue: Pulling packet, [^\n]*?provider-6[^\n]*?
At 6s provider: Providing packet, [^\n]*?provider-7[^\n]*?
At 6s server: Processing packet, [^\n]*?provider-7[^\n]*?
At 6s queue: Pushing packet, [^\n]*?provider-7[^\n]*?
At 6s consumer: Collecting packet, [^\n]*?provider-6[^\n]*?
At 7s queue: Pulling packet, [^\n]*?provider-7[^\n]*?
At 7s provider: Providing packet, [^\n]*?provider-8[^\n]*?
At 7s server: Processing packet, [^\n]*?provider-8[^\n]*?
At 7s queue: Pushing packet, [^\n]*?provider-8[^\n]*?
At 7s consumer: Collecting packet, [^\n]*?provider-7[^\n]*?
At 8s queue: Pulling packet, [^\n]*?provider-8[^\n]*?
At 8s provider: Providing packet, [^\n]*?provider-9[^\n]*?
At 8s server: Processing packet, [^\n]*?provider-9[^\n]*?
At 8s queue: Pushing packet, [^\n]*?provider-9[^\n]*?
At 8s consumer: Collecting packet, [^\n]*?provider-8[^\n]*?
At 9s queue: Pulling packet, [^\n]*?provider-9[^\n]*?
At 9s provider: Providing packet, [^\n]*?provider-10[^\n]*?
At 9s server: Processing packet, [^\n]*?provider-10[^\n]*?
At 9s queue: Pushing packet, [^\n]*?provider-10[^\n]*?
At 9s consumer: Collecting packet, [^\n]*?provider-9[^\n]*?
At 10s queue: Pulling packet, [^\n]*?provider-10[^\n]*?
At 10s provider: Providing packet, [^\n]*?provider-11[^\n]*?
At 10s server: Processing packet, [^\n]*?provider-11[^\n]*?
At 10s queue: Pushing packet, [^\n]*?provider-11[^\n]*?
At 10s consumer: Collecting packet, [^\n]*?provider-10[^\n]*?

<!> Simulation time limit reached -- at t=10s
