%description:

TODO
check
%file: test.ned

import inet.queueing.buffer.PriorityBuffer;
import inet.queueing.queue.PacketQueue;
import inet.queueing.sink.ActivePacketSink;
import inet.queueing.source.ActivePacketSource;
import inet.queueing.filter.RedDropper;

network TestRedDropper
{
    submodules:
        producer: ActivePacketSource {
            @display("p=100,100");
        }
        dropper: RedDropper {
            @display("p=300,100");
        }
        queue: PacketQueue {
            @display("p=500,100");
        }
        collector: ActivePacketSink {
            @display("p=700,100");
        }
    connections:
        producer.out --> dropper.in;
        dropper.out --> queue.in;
        queue.out --> collector.in;
}

%inifile: omnetpp.ini

[General]
network = TestRedDropper
sim-time-limit = 100s
cmdenv-event-banners = false
cmdenv-log-prefix = "At %ts %N: "
*.producer.packetLength = 1B
*.producer.productionInterval = exponential(1s)
*.dropper.minth = 1
*.dropper.maxth = 3
*.dropper.maxp = 0.1
*.dropper.wq = 0.5
*.collector.collectionInterval = exponential(1s)

%# remove formatting
%subst: /\x1B\[[0-9;]*m//

%subst: /\nRunning simulation\.\.\.\n//

%contains-regex: stdout
At [^\n]*?: Producing packet, [^\n]*producer-1[^\n]*
At [^\n]*?: Passing through packet, [^\n]*producer-1[^\n]*
At [^\n]*?: Pushing packet, [^\n]*producer-1[^\n]*
At [^\n]*?: Pulling packet, [^\n]*producer-1[^\n]*
At [^\n]*?: Collecting packet, [^\n]*producer-1[^\n]*
At [^\n]*?: Producing packet, [^\n]*producer-2[^\n]*
At [^\n]*?: Passing through packet, [^\n]*producer-2[^\n]*
At [^\n]*?: Pushing packet, [^\n]*producer-2[^\n]*
At [^\n]*?: Pulling packet, [^\n]*producer-2[^\n]*
At [^\n]*?: Collecting packet, [^\n]*producer-2[^\n]*
At [^\n]*?: Producing packet, [^\n]*producer-3[^\n]*
At [^\n]*?: Passing through packet, [^\n]*producer-3[^\n]*
At [^\n]*?: Pushing packet, [^\n]*producer-3[^\n]*
At [^\n]*?: Producing packet, [^\n]*producer-4[^\n]*
At [^\n]*?: Passing through packet, [^\n]*producer-4[^\n]*
At [^\n]*?: Pushing packet, [^\n]*producer-4[^\n]*
At [^\n]*?: Pulling packet, [^\n]*producer-3[^\n]*
At [^\n]*?: Collecting packet, [^\n]*producer-3[^\n]*
At [^\n]*?: Pulling packet, [^\n]*producer-4[^\n]*
At [^\n]*?: Collecting packet, [^\n]*producer-4[^\n]*
At [^\n]*?: Producing packet, [^\n]*producer-5[^\n]*
At [^\n]*?: Passing through packet, [^\n]*producer-5[^\n]*
At [^\n]*?: Pushing packet, [^\n]*producer-5[^\n]*
At [^\n]*?: Pulling packet, [^\n]*producer-5[^\n]*
At [^\n]*?: Collecting packet, [^\n]*producer-5[^\n]*
At [^\n]*?: Producing packet, [^\n]*producer-6[^\n]*
At [^\n]*?: Passing through packet, [^\n]*producer-6[^\n]*
At [^\n]*?: Pushing packet, [^\n]*producer-6[^\n]*
At [^\n]*?: Pulling packet, [^\n]*producer-6[^\n]*
At [^\n]*?: Collecting packet, [^\n]*producer-6[^\n]*
At [^\n]*?: Producing packet, [^\n]*producer-7[^\n]*
At [^\n]*?: Passing through packet, [^\n]*producer-7[^\n]*
At [^\n]*?: Pushing packet, [^\n]*producer-7[^\n]*
At [^\n]*?: Pulling packet, [^\n]*producer-7[^\n]*
At [^\n]*?: Collecting packet, [^\n]*producer-7[^\n]*
At [^\n]*?: Producing packet, [^\n]*producer-8[^\n]*
At [^\n]*?: Passing through packet, [^\n]*producer-8[^\n]*
At [^\n]*?: Pushing packet, [^\n]*producer-8[^\n]*
At [^\n]*?: Pulling packet, [^\n]*producer-8[^\n]*
At [^\n]*?: Collecting packet, [^\n]*producer-8[^\n]*
At [^\n]*?: Producing packet, [^\n]*producer-9[^\n]*
At [^\n]*?: Passing through packet, [^\n]*producer-9[^\n]*
At [^\n]*?: Pushing packet, [^\n]*producer-9[^\n]*
At [^\n]*?: Pulling packet, [^\n]*producer-9[^\n]*
At [^\n]*?: Collecting packet, [^\n]*producer-9[^\n]*
At [^\n]*?: Producing packet, [^\n]*producer-10[^\n]*
At [^\n]*?: Passing through packet, [^\n]*producer-10[^\n]*
At [^\n]*?: Pushing packet, [^\n]*producer-10[^\n]*
At [^\n]*?: Pulling packet, [^\n]*producer-10[^\n]*
At [^\n]*?: Collecting packet, [^\n]*producer-10[^\n]*
At [^\n]*?: Producing packet, [^\n]*producer-11[^\n]*
At [^\n]*?: Passing through packet, [^\n]*producer-11[^\n]*
At [^\n]*?: Pushing packet, [^\n]*producer-11[^\n]*
At [^\n]*?: Pulling packet, [^\n]*producer-11[^\n]*
At [^\n]*?: Collecting packet, [^\n]*producer-11[^\n]*
At [^\n]*?: Producing packet, [^\n]*producer-12[^\n]*
At [^\n]*?: Passing through packet, [^\n]*producer-12[^\n]*
At [^\n]*?: Pushing packet, [^\n]*producer-12[^\n]*
At [^\n]*?: Pulling packet, [^\n]*producer-12[^\n]*
At [^\n]*?: Collecting packet, [^\n]*producer-12[^\n]*
At [^\n]*?: Producing packet, [^\n]*producer-13[^\n]*
At [^\n]*?: Passing through packet, [^\n]*producer-13[^\n]*
At [^\n]*?: Pushing packet, [^\n]*producer-13[^\n]*
At [^\n]*?: Pulling packet, [^\n]*producer-13[^\n]*
At [^\n]*?: Collecting packet, [^\n]*producer-13[^\n]*
At [^\n]*?: Producing packet, [^\n]*producer-14[^\n]*
At [^\n]*?: Passing through packet, [^\n]*producer-14[^\n]*
At [^\n]*?: Pushing packet, [^\n]*producer-14[^\n]*
At [^\n]*?: Pulling packet, [^\n]*producer-14[^\n]*
At [^\n]*?: Collecting packet, [^\n]*producer-14[^\n]*
At [^\n]*?: Producing packet, [^\n]*producer-15[^\n]*
At [^\n]*?: Passing through packet, [^\n]*producer-15[^\n]*
At [^\n]*?: Pushing packet, [^\n]*producer-15[^\n]*
At [^\n]*?: Producing packet, [^\n]*producer-16[^\n]*
At [^\n]*?: Passing through packet, [^\n]*producer-16[^\n]*
At [^\n]*?: Pushing packet, [^\n]*producer-16[^\n]*
At [^\n]*?: Pulling packet, [^\n]*producer-15[^\n]*
At [^\n]*?: Collecting packet, [^\n]*producer-15[^\n]*
At [^\n]*?: Pulling packet, [^\n]*producer-16[^\n]*
At [^\n]*?: Collecting packet, [^\n]*producer-16[^\n]*
At [^\n]*?: Producing packet, [^\n]*producer-17[^\n]*
At [^\n]*?: Passing through packet, [^\n]*producer-17[^\n]*
At [^\n]*?: Pushing packet, [^\n]*producer-17[^\n]*
At [^\n]*?: Pulling packet, [^\n]*producer-17[^\n]*
At [^\n]*?: Collecting packet, [^\n]*producer-17[^\n]*
At [^\n]*?: Producing packet, [^\n]*producer-18[^\n]*
At [^\n]*?: Passing through packet, [^\n]*producer-18[^\n]*
At [^\n]*?: Pushing packet, [^\n]*producer-18[^\n]*
At [^\n]*?: Pulling packet, [^\n]*producer-18[^\n]*
At [^\n]*?: Collecting packet, [^\n]*producer-18[^\n]*
At [^\n]*?: Producing packet, [^\n]*producer-19[^\n]*
At [^\n]*?: Passing through packet, [^\n]*producer-19[^\n]*
At [^\n]*?: Pushing packet, [^\n]*producer-19[^\n]*
At [^\n]*?: Pulling packet, [^\n]*producer-19[^\n]*
At [^\n]*?: Collecting packet, [^\n]*producer-19[^\n]*
At [^\n]*?: Producing packet, [^\n]*producer-20[^\n]*
At [^\n]*?: Passing through packet, [^\n]*producer-20[^\n]*
At [^\n]*?: Pushing packet, [^\n]*producer-20[^\n]*
At [^\n]*?: Pulling packet, [^\n]*producer-20[^\n]*
At [^\n]*?: Collecting packet, [^\n]*producer-20[^\n]*
At [^\n]*?: Producing packet, [^\n]*producer-21[^\n]*
At [^\n]*?: Passing through packet, [^\n]*producer-21[^\n]*
At [^\n]*?: Pushing packet, [^\n]*producer-21[^\n]*
At [^\n]*?: Pulling packet, [^\n]*producer-21[^\n]*
At [^\n]*?: Collecting packet, [^\n]*producer-21[^\n]*
At [^\n]*?: Producing packet, [^\n]*producer-22[^\n]*
At [^\n]*?: Passing through packet, [^\n]*producer-22[^\n]*
At [^\n]*?: Pushing packet, [^\n]*producer-22[^\n]*
At [^\n]*?: Pulling packet, [^\n]*producer-22[^\n]*
At [^\n]*?: Collecting packet, [^\n]*producer-22[^\n]*
At [^\n]*?: Producing packet, [^\n]*producer-23[^\n]*
At [^\n]*?: Passing through packet, [^\n]*producer-23[^\n]*
At [^\n]*?: Pushing packet, [^\n]*producer-23[^\n]*
At [^\n]*?: Pulling packet, [^\n]*producer-23[^\n]*
At [^\n]*?: Collecting packet, [^\n]*producer-23[^\n]*
At [^\n]*?: Producing packet, [^\n]*producer-24[^\n]*
At [^\n]*?: Passing through packet, [^\n]*producer-24[^\n]*
At [^\n]*?: Pushing packet, [^\n]*producer-24[^\n]*
At [^\n]*?: Pulling packet, [^\n]*producer-24[^\n]*
At [^\n]*?: Collecting packet, [^\n]*producer-24[^\n]*
At [^\n]*?: Producing packet, [^\n]*producer-25[^\n]*
At [^\n]*?: Passing through packet, [^\n]*producer-25[^\n]*
At [^\n]*?: Pushing packet, [^\n]*producer-25[^\n]*
At [^\n]*?: Producing packet, [^\n]*producer-26[^\n]*
At [^\n]*?: Passing through packet, [^\n]*producer-26[^\n]*
At [^\n]*?: Pushing packet, [^\n]*producer-26[^\n]*
At [^\n]*?: Pulling packet, [^\n]*producer-25[^\n]*
At [^\n]*?: Collecting packet, [^\n]*producer-25[^\n]*
At [^\n]*?: Pulling packet, [^\n]*producer-26[^\n]*
At [^\n]*?: Collecting packet, [^\n]*producer-26[^\n]*
At [^\n]*?: Producing packet, [^\n]*producer-27[^\n]*
At [^\n]*?: Passing through packet, [^\n]*producer-27[^\n]*
At [^\n]*?: Pushing packet, [^\n]*producer-27[^\n]*
At [^\n]*?: Pulling packet, [^\n]*producer-27[^\n]*
At [^\n]*?: Collecting packet, [^\n]*producer-27[^\n]*
At [^\n]*?: Producing packet, [^\n]*producer-28[^\n]*
At [^\n]*?: Passing through packet, [^\n]*producer-28[^\n]*
At [^\n]*?: Pushing packet, [^\n]*producer-28[^\n]*
At [^\n]*?: Pulling packet, [^\n]*producer-28[^\n]*
At [^\n]*?: Collecting packet, [^\n]*producer-28[^\n]*
At [^\n]*?: Producing packet, [^\n]*producer-29[^\n]*
At [^\n]*?: Passing through packet, [^\n]*producer-29[^\n]*
At [^\n]*?: Pushing packet, [^\n]*producer-29[^\n]*
At [^\n]*?: Pulling packet, [^\n]*producer-29[^\n]*
At [^\n]*?: Collecting packet, [^\n]*producer-29[^\n]*
At [^\n]*?: Producing packet, [^\n]*producer-30[^\n]*
At [^\n]*?: Passing through packet, [^\n]*producer-30[^\n]*
At [^\n]*?: Pushing packet, [^\n]*producer-30[^\n]*
At [^\n]*?: Pulling packet, [^\n]*producer-30[^\n]*
At [^\n]*?: Collecting packet, [^\n]*producer-30[^\n]*
At [^\n]*?: Producing packet, [^\n]*producer-31[^\n]*
At [^\n]*?: Passing through packet, [^\n]*producer-31[^\n]*
At [^\n]*?: Pushing packet, [^\n]*producer-31[^\n]*
At [^\n]*?: Pulling packet, [^\n]*producer-31[^\n]*
At [^\n]*?: Collecting packet, [^\n]*producer-31[^\n]*
At [^\n]*?: Producing packet, [^\n]*producer-32[^\n]*
At [^\n]*?: Passing through packet, [^\n]*producer-32[^\n]*
At [^\n]*?: Pushing packet, [^\n]*producer-32[^\n]*
At [^\n]*?: Pulling packet, [^\n]*producer-32[^\n]*
At [^\n]*?: Collecting packet, [^\n]*producer-32[^\n]*
At [^\n]*?: Producing packet, [^\n]*producer-33[^\n]*
At [^\n]*?: Passing through packet, [^\n]*producer-33[^\n]*
At [^\n]*?: Pushing packet, [^\n]*producer-33[^\n]*
At [^\n]*?: Pulling packet, [^\n]*producer-33[^\n]*
At [^\n]*?: Collecting packet, [^\n]*producer-33[^\n]*
At [^\n]*?: Producing packet, [^\n]*producer-34[^\n]*
At [^\n]*?: Passing through packet, [^\n]*producer-34[^\n]*
At [^\n]*?: Pushing packet, [^\n]*producer-34[^\n]*
At [^\n]*?: Pulling packet, [^\n]*producer-34[^\n]*
At [^\n]*?: Collecting packet, [^\n]*producer-34[^\n]*
At [^\n]*?: Producing packet, [^\n]*producer-35[^\n]*
At [^\n]*?: Passing through packet, [^\n]*producer-35[^\n]*
At [^\n]*?: Pushing packet, [^\n]*producer-35[^\n]*
At [^\n]*?: Pulling packet, [^\n]*producer-35[^\n]*
At [^\n]*?: Collecting packet, [^\n]*producer-35[^\n]*
At [^\n]*?: Producing packet, [^\n]*producer-36[^\n]*
At [^\n]*?: Passing through packet, [^\n]*producer-36[^\n]*
At [^\n]*?: Pushing packet, [^\n]*producer-36[^\n]*
At [^\n]*?: Pulling packet, [^\n]*producer-36[^\n]*
At [^\n]*?: Collecting packet, [^\n]*producer-36[^\n]*
At [^\n]*?: Producing packet, [^\n]*producer-37[^\n]*
At [^\n]*?: Passing through packet, [^\n]*producer-37[^\n]*
At [^\n]*?: Pushing packet, [^\n]*producer-37[^\n]*
At [^\n]*?: Pulling packet, [^\n]*producer-37[^\n]*
At [^\n]*?: Collecting packet, [^\n]*producer-37[^\n]*
At [^\n]*?: Producing packet, [^\n]*producer-38[^\n]*
At [^\n]*?: Passing through packet, [^\n]*producer-38[^\n]*
At [^\n]*?: Pushing packet, [^\n]*producer-38[^\n]*
At [^\n]*?: Pulling packet, [^\n]*producer-38[^\n]*
At [^\n]*?: Collecting packet, [^\n]*producer-38[^\n]*
At [^\n]*?: Producing packet, [^\n]*producer-39[^\n]*
At [^\n]*?: Passing through packet, [^\n]*producer-39[^\n]*
At [^\n]*?: Pushing packet, [^\n]*producer-39[^\n]*
At [^\n]*?: Pulling packet, [^\n]*producer-39[^\n]*
At [^\n]*?: Collecting packet, [^\n]*producer-39[^\n]*
At [^\n]*?: Producing packet, [^\n]*producer-40[^\n]*
At [^\n]*?: Passing through packet, [^\n]*producer-40[^\n]*
At [^\n]*?: Pushing packet, [^\n]*producer-40[^\n]*
At [^\n]*?: Pulling packet, [^\n]*producer-40[^\n]*
At [^\n]*?: Collecting packet, [^\n]*producer-40[^\n]*
At [^\n]*?: Producing packet, [^\n]*producer-41[^\n]*
At [^\n]*?: Passing through packet, [^\n]*producer-41[^\n]*
At [^\n]*?: Pushing packet, [^\n]*producer-41[^\n]*
At [^\n]*?: Pulling packet, [^\n]*producer-41[^\n]*
At [^\n]*?: Collecting packet, [^\n]*producer-41[^\n]*
At [^\n]*?: Producing packet, [^\n]*producer-42[^\n]*
At [^\n]*?: Passing through packet, [^\n]*producer-42[^\n]*
At [^\n]*?: Pushing packet, [^\n]*producer-42[^\n]*
At [^\n]*?: Producing packet, [^\n]*producer-43[^\n]*
At [^\n]*?: Passing through packet, [^\n]*producer-43[^\n]*
At [^\n]*?: Pushing packet, [^\n]*producer-43[^\n]*
At [^\n]*?: Producing packet, [^\n]*producer-44[^\n]*
At [^\n]*?: Passing through packet, [^\n]*producer-44[^\n]*
At [^\n]*?: Pushing packet, [^\n]*producer-44[^\n]*
At [^\n]*?: Producing packet, [^\n]*producer-45[^\n]*
At [^\n]*?: Queue length >= capacity, [^\n]*queueLength[^\n]* = 3, [^\n]*packetCapacity[^\n]* = 3.
At [^\n]*?: Filtering out packet, [^\n]*producer-45[^\n]*
At [^\n]*?: Pulling packet, [^\n]*producer-42[^\n]*
At [^\n]*?: Collecting packet, [^\n]*producer-42[^\n]*
At [^\n]*?: Producing packet, [^\n]*producer-46[^\n]*
At [^\n]*?: Passing through packet, [^\n]*producer-46[^\n]*
At [^\n]*?: Pushing packet, [^\n]*producer-46[^\n]*
At [^\n]*?: Pulling packet, [^\n]*producer-43[^\n]*
At [^\n]*?: Collecting packet, [^\n]*producer-43[^\n]*
At [^\n]*?: Pulling packet, [^\n]*producer-44[^\n]*
At [^\n]*?: Collecting packet, [^\n]*producer-44[^\n]*
At [^\n]*?: Producing packet, [^\n]*producer-47[^\n]*
At [^\n]*?: Passing through packet, [^\n]*producer-47[^\n]*
At [^\n]*?: Pushing packet, [^\n]*producer-47[^\n]*
At [^\n]*?: Producing packet, [^\n]*producer-48[^\n]*
At [^\n]*?: Passing through packet, [^\n]*producer-48[^\n]*
At [^\n]*?: Pushing packet, [^\n]*producer-48[^\n]*
At [^\n]*?: Pulling packet, [^\n]*producer-46[^\n]*
At [^\n]*?: Collecting packet, [^\n]*producer-46[^\n]*
At [^\n]*?: Producing packet, [^\n]*producer-49[^\n]*
At [^\n]*?: Passing through packet, [^\n]*producer-49[^\n]*
At [^\n]*?: Pushing packet, [^\n]*producer-49[^\n]*
At [^\n]*?: Pulling packet, [^\n]*producer-47[^\n]*
At [^\n]*?: Collecting packet, [^\n]*producer-47[^\n]*
At [^\n]*?: Producing packet, [^\n]*producer-50[^\n]*
At [^\n]*?: Passing through packet, [^\n]*producer-50[^\n]*
At [^\n]*?: Pushing packet, [^\n]*producer-50[^\n]*
At [^\n]*?: Pulling packet, [^\n]*producer-48[^\n]*
At [^\n]*?: Collecting packet, [^\n]*producer-48[^\n]*
At [^\n]*?: Producing packet, [^\n]*producer-51[^\n]*
At [^\n]*?: Passing through packet, [^\n]*producer-51[^\n]*
At [^\n]*?: Pushing packet, [^\n]*producer-51[^\n]*
At [^\n]*?: Producing packet, [^\n]*producer-52[^\n]*
At [^\n]*?: Queue length >= capacity, [^\n]*queueLength[^\n]* = 3, [^\n]*packetCapacity[^\n]* = 3.
At [^\n]*?: Filtering out packet, [^\n]*producer-52[^\n]*
At [^\n]*?: Pulling packet, [^\n]*producer-49[^\n]*
At [^\n]*?: Collecting packet, [^\n]*producer-49[^\n]*
At [^\n]*?: Pulling packet, [^\n]*producer-50[^\n]*
At [^\n]*?: Collecting packet, [^\n]*producer-50[^\n]*
At [^\n]*?: Producing packet, [^\n]*producer-53[^\n]*
At [^\n]*?: Passing through packet, [^\n]*producer-53[^\n]*
At [^\n]*?: Pushing packet, [^\n]*producer-53[^\n]*
At [^\n]*?: Producing packet, [^\n]*producer-54[^\n]*
At [^\n]*?: Passing through packet, [^\n]*producer-54[^\n]*
At [^\n]*?: Pushing packet, [^\n]*producer-54[^\n]*
At [^\n]*?: Pulling packet, [^\n]*producer-51[^\n]*
At [^\n]*?: Collecting packet, [^\n]*producer-51[^\n]*
At [^\n]*?: Pulling packet, [^\n]*producer-53[^\n]*
At [^\n]*?: Collecting packet, [^\n]*producer-53[^\n]*
At [^\n]*?: Producing packet, [^\n]*producer-55[^\n]*
At [^\n]*?: Passing through packet, [^\n]*producer-55[^\n]*
At [^\n]*?: Pushing packet, [^\n]*producer-55[^\n]*
At [^\n]*?: Pulling packet, [^\n]*producer-54[^\n]*
At [^\n]*?: Collecting packet, [^\n]*producer-54[^\n]*
At [^\n]*?: Producing packet, [^\n]*producer-56[^\n]*
At [^\n]*?: Passing through packet, [^\n]*producer-56[^\n]*
At [^\n]*?: Pushing packet, [^\n]*producer-56[^\n]*
At [^\n]*?: Pulling packet, [^\n]*producer-55[^\n]*
At [^\n]*?: Collecting packet, [^\n]*producer-55[^\n]*
At [^\n]*?: Pulling packet, [^\n]*producer-56[^\n]*
At [^\n]*?: Collecting packet, [^\n]*producer-56[^\n]*
At [^\n]*?: Producing packet, [^\n]*producer-57[^\n]*
At [^\n]*?: Passing through packet, [^\n]*producer-57[^\n]*
At [^\n]*?: Pushing packet, [^\n]*producer-57[^\n]*
At [^\n]*?: Pulling packet, [^\n]*producer-57[^\n]*
At [^\n]*?: Collecting packet, [^\n]*producer-57[^\n]*
At [^\n]*?: Producing packet, [^\n]*producer-58[^\n]*
At [^\n]*?: Passing through packet, [^\n]*producer-58[^\n]*
At [^\n]*?: Pushing packet, [^\n]*producer-58[^\n]*
At [^\n]*?: Pulling packet, [^\n]*producer-58[^\n]*
At [^\n]*?: Collecting packet, [^\n]*producer-58[^\n]*
At [^\n]*?: Producing packet, [^\n]*producer-59[^\n]*
At [^\n]*?: Passing through packet, [^\n]*producer-59[^\n]*
At [^\n]*?: Pushing packet, [^\n]*producer-59[^\n]*
At [^\n]*?: Pulling packet, [^\n]*producer-59[^\n]*
At [^\n]*?: Collecting packet, [^\n]*producer-59[^\n]*
At [^\n]*?: Producing packet, [^\n]*producer-60[^\n]*
At [^\n]*?: Passing through packet, [^\n]*producer-60[^\n]*
At [^\n]*?: Pushing packet, [^\n]*producer-60[^\n]*
At [^\n]*?: Pulling packet, [^\n]*producer-60[^\n]*
At [^\n]*?: Collecting packet, [^\n]*producer-60[^\n]*
At [^\n]*?: Producing packet, [^\n]*producer-61[^\n]*
At [^\n]*?: Passing through packet, [^\n]*producer-61[^\n]*
At [^\n]*?: Pushing packet, [^\n]*producer-61[^\n]*
At [^\n]*?: Pulling packet, [^\n]*producer-61[^\n]*
At [^\n]*?: Collecting packet, [^\n]*producer-61[^\n]*
At [^\n]*?: Producing packet, [^\n]*producer-62[^\n]*
At [^\n]*?: Passing through packet, [^\n]*producer-62[^\n]*
At [^\n]*?: Pushing packet, [^\n]*producer-62[^\n]*
At [^\n]*?: Producing packet, [^\n]*producer-63[^\n]*
At [^\n]*?: Passing through packet, [^\n]*producer-63[^\n]*
At [^\n]*?: Pushing packet, [^\n]*producer-63[^\n]*
At [^\n]*?: Producing packet, [^\n]*producer-64[^\n]*
At [^\n]*?: Passing through packet, [^\n]*producer-64[^\n]*
At [^\n]*?: Pushing packet, [^\n]*producer-64[^\n]*
At [^\n]*?: Pulling packet, [^\n]*producer-62[^\n]*
At [^\n]*?: Collecting packet, [^\n]*producer-62[^\n]*
At [^\n]*?: Producing packet, [^\n]*producer-65[^\n]*
At [^\n]*?: Passing through packet, [^\n]*producer-65[^\n]*
At [^\n]*?: Pushing packet, [^\n]*producer-65[^\n]*
At [^\n]*?: Producing packet, [^\n]*producer-66[^\n]*
At [^\n]*?: Queue length >= capacity, [^\n]*queueLength[^\n]* = 3, [^\n]*packetCapacity[^\n]* = 3.
At [^\n]*?: Filtering out packet, [^\n]*producer-66[^\n]*
At [^\n]*?: Pulling packet, [^\n]*producer-63[^\n]*
At [^\n]*?: Collecting packet, [^\n]*producer-63[^\n]*
At [^\n]*?: Pulling packet, [^\n]*producer-64[^\n]*
At [^\n]*?: Collecting packet, [^\n]*producer-64[^\n]*
At [^\n]*?: Pulling packet, [^\n]*producer-65[^\n]*
At [^\n]*?: Collecting packet, [^\n]*producer-65[^\n]*
At [^\n]*?: Producing packet, [^\n]*producer-67[^\n]*
At [^\n]*?: Passing through packet, [^\n]*producer-67[^\n]*
At [^\n]*?: Pushing packet, [^\n]*producer-67[^\n]*
At [^\n]*?: Pulling packet, [^\n]*producer-67[^\n]*
At [^\n]*?: Collecting packet, [^\n]*producer-67[^\n]*
At [^\n]*?: Producing packet, [^\n]*producer-68[^\n]*
At [^\n]*?: Passing through packet, [^\n]*producer-68[^\n]*
At [^\n]*?: Pushing packet, [^\n]*producer-68[^\n]*
At [^\n]*?: Pulling packet, [^\n]*producer-68[^\n]*
At [^\n]*?: Collecting packet, [^\n]*producer-68[^\n]*
At [^\n]*?: Producing packet, [^\n]*producer-69[^\n]*
At [^\n]*?: Passing through packet, [^\n]*producer-69[^\n]*
At [^\n]*?: Pushing packet, [^\n]*producer-69[^\n]*
At [^\n]*?: Pulling packet, [^\n]*producer-69[^\n]*
At [^\n]*?: Collecting packet, [^\n]*producer-69[^\n]*
At [^\n]*?: Producing packet, [^\n]*producer-70[^\n]*
At [^\n]*?: Passing through packet, [^\n]*producer-70[^\n]*
At [^\n]*?: Pushing packet, [^\n]*producer-70[^\n]*
At [^\n]*?: Pulling packet, [^\n]*producer-70[^\n]*
At [^\n]*?: Collecting packet, [^\n]*producer-70[^\n]*
At [^\n]*?: Producing packet, [^\n]*producer-71[^\n]*
At [^\n]*?: Passing through packet, [^\n]*producer-71[^\n]*
At [^\n]*?: Pushing packet, [^\n]*producer-71[^\n]*
At [^\n]*?: Producing packet, [^\n]*producer-72[^\n]*
At [^\n]*?: Passing through packet, [^\n]*producer-72[^\n]*
At [^\n]*?: Pushing packet, [^\n]*producer-72[^\n]*
At [^\n]*?: Pulling packet, [^\n]*producer-71[^\n]*
At [^\n]*?: Collecting packet, [^\n]*producer-71[^\n]*
At [^\n]*?: Pulling packet, [^\n]*producer-72[^\n]*
At [^\n]*?: Collecting packet, [^\n]*producer-72[^\n]*
At [^\n]*?: Producing packet, [^\n]*producer-73[^\n]*
At [^\n]*?: Passing through packet, [^\n]*producer-73[^\n]*
At [^\n]*?: Pushing packet, [^\n]*producer-73[^\n]*
At [^\n]*?: Pulling packet, [^\n]*producer-73[^\n]*
At [^\n]*?: Collecting packet, [^\n]*producer-73[^\n]*
At [^\n]*?: Producing packet, [^\n]*producer-74[^\n]*
At [^\n]*?: Passing through packet, [^\n]*producer-74[^\n]*
At [^\n]*?: Pushing packet, [^\n]*producer-74[^\n]*
At [^\n]*?: Producing packet, [^\n]*producer-75[^\n]*
At [^\n]*?: Passing through packet, [^\n]*producer-75[^\n]*
At [^\n]*?: Pushing packet, [^\n]*producer-75[^\n]*
At [^\n]*?: Pulling packet, [^\n]*producer-74[^\n]*
At [^\n]*?: Collecting packet, [^\n]*producer-74[^\n]*
At [^\n]*?: Pulling packet, [^\n]*producer-75[^\n]*
At [^\n]*?: Collecting packet, [^\n]*producer-75[^\n]*
At [^\n]*?: Producing packet, [^\n]*producer-76[^\n]*
At [^\n]*?: Passing through packet, [^\n]*producer-76[^\n]*
At [^\n]*?: Pushing packet, [^\n]*producer-76[^\n]*
At [^\n]*?: Producing packet, [^\n]*producer-77[^\n]*
At [^\n]*?: Passing through packet, [^\n]*producer-77[^\n]*
At [^\n]*?: Pushing packet, [^\n]*producer-77[^\n]*
At [^\n]*?: Pulling packet, [^\n]*producer-76[^\n]*
At [^\n]*?: Collecting packet, [^\n]*producer-76[^\n]*
At [^\n]*?: Pulling packet, [^\n]*producer-77[^\n]*
At [^\n]*?: Collecting packet, [^\n]*producer-77[^\n]*
At [^\n]*?: Producing packet, [^\n]*producer-78[^\n]*
At [^\n]*?: Passing through packet, [^\n]*producer-78[^\n]*
At [^\n]*?: Pushing packet, [^\n]*producer-78[^\n]*
At [^\n]*?: Pulling packet, [^\n]*producer-78[^\n]*
At [^\n]*?: Collecting packet, [^\n]*producer-78[^\n]*
At [^\n]*?: Producing packet, [^\n]*producer-79[^\n]*
At [^\n]*?: Passing through packet, [^\n]*producer-79[^\n]*
At [^\n]*?: Pushing packet, [^\n]*producer-79[^\n]*
At [^\n]*?: Pulling packet, [^\n]*producer-79[^\n]*
At [^\n]*?: Collecting packet, [^\n]*producer-79[^\n]*
At [^\n]*?: Producing packet, [^\n]*producer-80[^\n]*
At [^\n]*?: Passing through packet, [^\n]*producer-80[^\n]*
At [^\n]*?: Pushing packet, [^\n]*producer-80[^\n]*
At [^\n]*?: Producing packet, [^\n]*producer-81[^\n]*
At [^\n]*?: Passing through packet, [^\n]*producer-81[^\n]*
At [^\n]*?: Pushing packet, [^\n]*producer-81[^\n]*
At [^\n]*?: Producing packet, [^\n]*producer-82[^\n]*
At [^\n]*?: Passing through packet, [^\n]*producer-82[^\n]*
At [^\n]*?: Pushing packet, [^\n]*producer-82[^\n]*
At [^\n]*?: Pulling packet, [^\n]*producer-80[^\n]*
At [^\n]*?: Collecting packet, [^\n]*producer-80[^\n]*
At [^\n]*?: Pulling packet, [^\n]*producer-81[^\n]*
At [^\n]*?: Collecting packet, [^\n]*producer-81[^\n]*
At [^\n]*?: Producing packet, [^\n]*producer-83[^\n]*
At [^\n]*?: Passing through packet, [^\n]*producer-83[^\n]*
At [^\n]*?: Pushing packet, [^\n]*producer-83[^\n]*
At [^\n]*?: Producing packet, [^\n]*producer-84[^\n]*
At [^\n]*?: Passing through packet, [^\n]*producer-84[^\n]*
At [^\n]*?: Pushing packet, [^\n]*producer-84[^\n]*
At [^\n]*?: Pulling packet, [^\n]*producer-82[^\n]*
At [^\n]*?: Collecting packet, [^\n]*producer-82[^\n]*
At [^\n]*?: Pulling packet, [^\n]*producer-83[^\n]*
At [^\n]*?: Collecting packet, [^\n]*producer-83[^\n]*
At [^\n]*?: Pulling packet, [^\n]*producer-84[^\n]*
At [^\n]*?: Collecting packet, [^\n]*producer-84[^\n]*
At [^\n]*?: Producing packet, [^\n]*producer-85[^\n]*
At [^\n]*?: Passing through packet, [^\n]*producer-85[^\n]*
At [^\n]*?: Pushing packet, [^\n]*producer-85[^\n]*
At [^\n]*?: Pulling packet, [^\n]*producer-85[^\n]*
At [^\n]*?: Collecting packet, [^\n]*producer-85[^\n]*
At [^\n]*?: Producing packet, [^\n]*producer-86[^\n]*
At [^\n]*?: Passing through packet, [^\n]*producer-86[^\n]*
At [^\n]*?: Pushing packet, [^\n]*producer-86[^\n]*
At [^\n]*?: Pulling packet, [^\n]*producer-86[^\n]*
At [^\n]*?: Collecting packet, [^\n]*producer-86[^\n]*
At [^\n]*?: Producing packet, [^\n]*producer-87[^\n]*
At [^\n]*?: Passing through packet, [^\n]*producer-87[^\n]*
At [^\n]*?: Pushing packet, [^\n]*producer-87[^\n]*
