%description:

TODO

%file: test.ned

import inet.queueing.meter.TokenBucketMeter;
import inet.queueing.sink.PassivePacketSink;
import inet.queueing.source.ActivePacketSource;

network TestTokenBucket
{
    submodules:
        producer: ActivePacketSource {
            @display("p=100,100");
        }
        meter: TokenBucketMeter {
            @display("p=200,100");
        }
        consumer: PassivePacketSink {
            @display("p=300,100");
        }
    connections allowunconnected:
        producer.out --> meter.in;
        meter.out --> consumer.in;
}

%inifile: omnetpp.ini

[General]
network = TestTokenBucket
sim-time-limit = 10s
cmdenv-event-banners = false
cmdenv-log-prefix = "At %ts %N: "
*.producer.packetLength = 1B
*.producer.productionInterval = exponential(1s)
*.meter.tokenProductionRate = 4
*.meter.label = "green"

%# remove formatting
%subst: /\x1B\[[0-9;]*m//

%subst: /\nRunning simulation\.\.\.\n//

%contains-regex: stdout
At [^\n]*?: Producing packet, [^\n]*?producer-0[^\n]*?
At [^\n]*?: Metering packet, [^\n]*?producer-0[^\n]*?
At [^\n]*?: Checking tokens for packet, [^\n]*?8[^\n]*?, [^\n]*?0[^\n]*?, [^\n]*?producer-0[^\n]*?
At [^\n]*?: Insufficient number of tokens for packet, [^\n]*?8[^\n]*?, [^\n]*?0[^\n]*?, [^\n]*?producer-0[^\n]*?
At [^\n]*?: Consuming packet, [^\n]*?producer-0[^\n]*?
At [^\n]*?: Producing packet, [^\n]*?producer-1[^\n]*?
At [^\n]*?: Metering packet, [^\n]*?producer-1[^\n]*?
At [^\n]*?: Checking tokens for packet, [^\n]*?8[^\n]*?, [^\n]*?3.1835[^\n]*?, [^\n]*?producer-1[^\n]*?
At [^\n]*?: Insufficient number of tokens for packet, [^\n]*?8[^\n]*?, [^\n]*?3.1835[^\n]*?, [^\n]*?producer-1[^\n]*?
At [^\n]*?: Consuming packet, [^\n]*?producer-1[^\n]*?
At [^\n]*?: Producing packet, [^\n]*?producer-2[^\n]*?
At [^\n]*?: Metering packet, [^\n]*?producer-2[^\n]*?
At [^\n]*?: Checking tokens for packet, [^\n]*?8[^\n]*?, [^\n]*?6.77774[^\n]*?, [^\n]*?producer-2[^\n]*?
At [^\n]*?: Insufficient number of tokens for packet, [^\n]*?8[^\n]*?, [^\n]*?6.77774[^\n]*?, [^\n]*?producer-2[^\n]*?
At [^\n]*?: Consuming packet, [^\n]*?producer-2[^\n]*?
At [^\n]*?: Producing packet, [^\n]*?producer-3[^\n]*?
At [^\n]*?: Metering packet, [^\n]*?producer-3[^\n]*?
At [^\n]*?: Checking tokens for packet, [^\n]*?8[^\n]*?, [^\n]*?11.8015[^\n]*?, [^\n]*?producer-3[^\n]*?
At [^\n]*?: Removed tokens, labeling packet, [^\n]*?8[^\n]*?, [^\n]*?3.80146[^\n]*?, [^\n]*?green[^\n]*?, [^\n]*?producer-3[^\n]*?
At [^\n]*?: Consuming packet, [^\n]*?producer-3[^\n]*?
At [^\n]*?: Producing packet, [^\n]*?producer-4[^\n]*?
At [^\n]*?: Metering packet, [^\n]*?producer-4[^\n]*?
At [^\n]*?: Checking tokens for packet, [^\n]*?8[^\n]*?, [^\n]*?11.2399[^\n]*?, [^\n]*?producer-4[^\n]*?
At [^\n]*?: Removed tokens, labeling packet, [^\n]*?8[^\n]*?, [^\n]*?3.23988[^\n]*?, [^\n]*?green[^\n]*?, [^\n]*?producer-4[^\n]*?
At [^\n]*?: Consuming packet, [^\n]*?producer-4[^\n]*?
At [^\n]*?: Producing packet, [^\n]*?producer-5[^\n]*?
At [^\n]*?: Metering packet, [^\n]*?producer-5[^\n]*?
At [^\n]*?: Checking tokens for packet, [^\n]*?8[^\n]*?, [^\n]*?6.93277[^\n]*?, [^\n]*?producer-5[^\n]*?
At [^\n]*?: Insufficient number of tokens for packet, [^\n]*?8[^\n]*?, [^\n]*?6.93277[^\n]*?, [^\n]*?producer-5[^\n]*?
At [^\n]*?: Consuming packet, [^\n]*?producer-5[^\n]*?
At [^\n]*?: Producing packet, [^\n]*?producer-6[^\n]*?
At [^\n]*?: Metering packet, [^\n]*?producer-6[^\n]*?
At [^\n]*?: Checking tokens for packet, [^\n]*?8[^\n]*?, [^\n]*?14.739[^\n]*?, [^\n]*?producer-6[^\n]*?
At [^\n]*?: Removed tokens, labeling packet, [^\n]*?8[^\n]*?, [^\n]*?6.73895[^\n]*?, [^\n]*?green[^\n]*?, [^\n]*?producer-6[^\n]*?
At [^\n]*?: Consuming packet, [^\n]*?producer-6[^\n]*?
At [^\n]*?: Producing packet, [^\n]*?producer-7[^\n]*?
At [^\n]*?: Metering packet, [^\n]*?producer-7[^\n]*?
At [^\n]*?: Checking tokens for packet, [^\n]*?8[^\n]*?, [^\n]*?9.88776[^\n]*?, [^\n]*?producer-7[^\n]*?
At [^\n]*?: Removed tokens, labeling packet, [^\n]*?8[^\n]*?, [^\n]*?1.88776[^\n]*?, [^\n]*?green[^\n]*?, [^\n]*?producer-7[^\n]*?
At [^\n]*?: Consuming packet, [^\n]*?producer-7[^\n]*?
