%description:

TODO

%file: test.ned

import inet.queueing.shaper.TokenBucket;
import inet.queueing.sink.PassivePacketSink;
import inet.queueing.source.ActivePacketSource;
import inet.queueing.tokengenerator.TimeBasedTokenGenerator;

network TestTokenBucket
{
    submodules:
        producer: ActivePacketSource {
            @display("p=100,100");
        }
        bucket: TokenBucket {
            @display("p=200,100");
        }
        consumer: PassivePacketSink {
            @display("p=300,100");
        }
        tokenGenerator: TimeBasedTokenGenerator {
            @display("p=100,200");
        }
    connections allowunconnected:
        producer.out --> bucket.in;
        bucket.out --> consumer.in;
}

%inifile: omnetpp.ini

[General]
network = TestTokenBucket
sim-time-limit = 10s
cmdenv-event-banners = false
cmdenv-log-prefix = "At %ts %N: "
*.producer.packetLength = 1B
*.producer.productionInterval = uniform(0s, 2s)
*.bucket.server.maxNumTokens = 10
*.tokenGenerator.storageModule = "^.bucket.server"
*.tokenGenerator.generationInterval = uniform(0s, 2s)

%# remove formatting
%subst: /\x1B\[[0-9;]*m//

%subst: /\nRunning simulation\.\.\.\n//

%contains-regex: stdout
At [^\n]*?: Producing packet, .*?producer-0.*?
At [^\n]*?: Pushing packet, .*?producer-0.*?
At [^\n]*?: Producing packet, .*?producer-1.*?
At [^\n]*?: Pushing packet, .*?producer-1.*?
At [^\n]*?: Pulling packet, .*?producer-0.*?
At [^\n]*?: Processing packet, .*?producer-0.*?
At [^\n]*?: Consuming packet, .*?producer-0.*?
At [^\n]*?: Producing packet, .*?producer-2.*?
At [^\n]*?: Pushing packet, .*?producer-2.*?
At [^\n]*?: Pulling packet, .*?producer-1.*?
At [^\n]*?: Processing packet, .*?producer-1.*?
At [^\n]*?: Consuming packet, .*?producer-1.*?
At [^\n]*?: Producing packet, .*?producer-3.*?
At [^\n]*?: Pushing packet, .*?producer-3.*?
At [^\n]*?: Pulling packet, .*?producer-2.*?
At [^\n]*?: Processing packet, .*?producer-2.*?
At [^\n]*?: Consuming packet, .*?producer-2.*?
At [^\n]*?: Producing packet, .*?producer-4.*?
At [^\n]*?: Pushing packet, .*?producer-4.*?
At [^\n]*?: Producing packet, .*?producer-5.*?
At [^\n]*?: Pushing packet, .*?producer-5.*?
At [^\n]*?: Pulling packet, .*?producer-3.*?
At [^\n]*?: Processing packet, .*?producer-3.*?
At [^\n]*?: Consuming packet, .*?producer-3.*?
At [^\n]*?: Producing packet, .*?producer-6.*?
At [^\n]*?: Pushing packet, .*?producer-6.*?
At [^\n]*?: Pulling packet, .*?producer-4.*?
At [^\n]*?: Processing packet, .*?producer-4.*?
At [^\n]*?: Consuming packet, .*?producer-4.*?
At [^\n]*?: Producing packet, .*?producer-7.*?
At [^\n]*?: Pushing packet, .*?producer-7.*?
At [^\n]*?: Producing packet, .*?producer-8.*?
At [^\n]*?: Pushing packet, .*?producer-8.*?
At [^\n]*?: Pulling packet, .*?producer-5.*?
At [^\n]*?: Processing packet, .*?producer-5.*?
At [^\n]*?: Consuming packet, .*?producer-5.*?
At [^\n]*?: Pulling packet, .*?producer-6.*?
At [^\n]*?: Processing packet, .*?producer-6.*?
At [^\n]*?: Consuming packet, .*?producer-6.*?
