%description:

TODO

%file: test.ned

import inet.queueing.shaper.TokenBucket;
import inet.queueing.sink.PassivePacketSink;
import inet.queueing.source.ActivePacketSource;
import inet.queueing.tokengenerator.TimeBasedTokenGenerator;

network TestTokenBucket
{
    submodules:
        producer: ActivePacketSource {
            @display("p=100,100");
        }
        bucket: TokenBucket {
            @display("p=200,100");
        }
        consumer: PassivePacketSink {
            @display("p=300,100");
        }
        tokenGenerator: TimeBasedTokenGenerator {
            @display("p=100,200");
        }
    connections allowunconnected:
        producer.out --> bucket.in;
        bucket.out --> consumer.in;
}

%inifile: omnetpp.ini

[General]
network = TestTokenBucket
sim-time-limit = 10s
cmdenv-event-banners = false
cmdenv-log-prefix = "At %ts %N: "
*.producer.packetLength = 1B
*.producer.productionInterval = uniform(0s, 2s)
*.bucket.server.maxNumTokens = 10
*.tokenGenerator.storageModule = "^.bucket.server"
*.tokenGenerator.generationInterval = uniform(0s, 2s)

%# remove formatting
%subst: /\x1B\[[0-9;]*m//

%subst: /\nRunning simulation\.\.\.\n//

%contains-regex: stdout
At [^\n]*?: Producing packet, [^\n]*?producer-0[^\n]*?
At [^\n]*?: Pushing packet, [^\n]*?producer-0[^\n]*?
At [^\n]*?: Producing packet, [^\n]*?producer-1[^\n]*?
At [^\n]*?: Pushing packet, [^\n]*?producer-1[^\n]*?
At [^\n]*?: Pulling packet, [^\n]*?producer-0[^\n]*?
At [^\n]*?: Processing packet, [^\n]*?producer-0[^\n]*?
At [^\n]*?: Consuming packet, [^\n]*?producer-0[^\n]*?
At [^\n]*?: Producing packet, [^\n]*?producer-2[^\n]*?
At [^\n]*?: Pushing packet, [^\n]*?producer-2[^\n]*?
At [^\n]*?: Pulling packet, [^\n]*?producer-1[^\n]*?
At [^\n]*?: Processing packet, [^\n]*?producer-1[^\n]*?
At [^\n]*?: Consuming packet, [^\n]*?producer-1[^\n]*?
At [^\n]*?: Producing packet, [^\n]*?producer-3[^\n]*?
At [^\n]*?: Pushing packet, [^\n]*?producer-3[^\n]*?
At [^\n]*?: Pulling packet, [^\n]*?producer-2[^\n]*?
At [^\n]*?: Processing packet, [^\n]*?producer-2[^\n]*?
At [^\n]*?: Consuming packet, [^\n]*?producer-2[^\n]*?
At [^\n]*?: Producing packet, [^\n]*?producer-4[^\n]*?
At [^\n]*?: Pushing packet, [^\n]*?producer-4[^\n]*?
At [^\n]*?: Producing packet, [^\n]*?producer-5[^\n]*?
At [^\n]*?: Pushing packet, [^\n]*?producer-5[^\n]*?
At [^\n]*?: Pulling packet, [^\n]*?producer-3[^\n]*?
At [^\n]*?: Processing packet, [^\n]*?producer-3[^\n]*?
At [^\n]*?: Consuming packet, [^\n]*?producer-3[^\n]*?
At [^\n]*?: Producing packet, [^\n]*?producer-6[^\n]*?
At [^\n]*?: Pushing packet, [^\n]*?producer-6[^\n]*?
At [^\n]*?: Pulling packet, [^\n]*?producer-4[^\n]*?
At [^\n]*?: Processing packet, [^\n]*?producer-4[^\n]*?
At [^\n]*?: Consuming packet, [^\n]*?producer-4[^\n]*?
At [^\n]*?: Producing packet, [^\n]*?producer-7[^\n]*?
At [^\n]*?: Pushing packet, [^\n]*?producer-7[^\n]*?
At [^\n]*?: Producing packet, [^\n]*?producer-8[^\n]*?
At [^\n]*?: Pushing packet, [^\n]*?producer-8[^\n]*?
At [^\n]*?: Pulling packet, [^\n]*?producer-5[^\n]*?
At [^\n]*?: Processing packet, [^\n]*?producer-5[^\n]*?
At [^\n]*?: Consuming packet, [^\n]*?producer-5[^\n]*?
At [^\n]*?: Pulling packet, [^\n]*?producer-6[^\n]*?
At [^\n]*?: Processing packet, [^\n]*?producer-6[^\n]*?
At [^\n]*?: Consuming packet, [^\n]*?producer-6[^\n]*?

<!> Simulation time limit reached -- at t=10s
